10087955
  -OEChem-03092322183D

 39 40  0     0  0  0  0  0  0999 V2000
   -5.1403   -1.9390   -0.6775 O   0  0  0  0  0  0  0  0  0  0  0  0
    7.1687    0.7027   -0.0611 O   0  0  0  0  0  0  0  0  0  0  0  0
   -7.1143   -0.1486    0.1127 O   0  0  0  0  0  0  0  0  0  0  0  0
    0.9250    2.3816   -0.0927 O   0  0  0  0  0  0  0  0  0  0  0  0
    4.1104   -3.0746    0.7301 O   0  0  0  0  0  0  0  0  0  0  0  0
    2.2174   -2.5425   -0.4100 O   0  0  0  0  0  0  0  0  0  0  0  0
    1.6482    0.1495   -0.0064 N   0  0  0  0  0  0  0  0  0  0  0  0
    3.0594    0.2722   -0.0191 C   0  0  0  0  0  0  0  0  0  0  0  0
    3.8602   -0.8573    0.0208 C   0  0  0  0  0  0  0  0  0  0  0  0
   -3.1380    1.0413    0.0085 C   0  0  0  0  0  0  0  0  0  0  0  0
    3.6079    1.5436   -0.0728 C   0  0  0  0  0  0  0  0  0  0  0  0
   -3.4820   -0.2609   -0.3544 C   0  0  0  0  0  0  0  0  0  0  0  0
    5.2475   -0.7122    0.0069 C   0  0  0  0  0  0  0  0  0  0  0  0
   -4.8167   -0.6647   -0.3208 C   0  0  0  0  0  0  0  0  0  0  0  0
   -4.1288    1.9398    0.4047 C   0  0  0  0  0  0  0  0  0  0  0  0
   -1.7463    1.4624   -0.0266 C   0  0  0  0  0  0  0  0  0  0  0  0
    5.8150    0.5609   -0.0470 C   0  0  0  0  0  0  0  0  0  0  0  0
    4.9952    1.6888   -0.0868 C   0  0  0  0  0  0  0  0  0  0  0  0
   -5.8073    0.2337    0.0755 C   0  0  0  0  0  0  0  0  0  0  0  0
    0.7131    1.1758   -0.0421 C   0  0  0  0  0  0  0  0  0  0  0  0
   -5.4634    1.5361    0.4382 C   0  0  0  0  0  0  0  0  0  0  0  0
   -0.6793    0.6319   -0.0128 C   0  0  0  0  0  0  0  0  0  0  0  0
    3.2995   -2.2017    0.0743 C   0  0  0  0  0  0  0  0  0  0  0  0
   -5.1511   -2.9191    0.3585 C   0  0  0  0  0  0  0  0  0  0  0  0
    3.0517    2.4676   -0.1059 H   0  0  0  0  0  0  0  0  0  0  0  0
    1.2955   -0.8030    0.0363 H   0  0  0  0  0  0  0  0  0  0  0  0
   -2.7426   -0.9833   -0.6891 H   0  0  0  0  0  0  0  0  0  0  0  0
    5.9093   -1.5748    0.0231 H   0  0  0  0  0  0  0  0  0  0  0  0
   -3.8796    2.9584    0.6924 H   0  0  0  0  0  0  0  0  0  0  0  0
   -1.5858    2.5380   -0.0556 H   0  0  0  0  0  0  0  0  0  0  0  0
    5.4265    2.6856   -0.1290 H   0  0  0  0  0  0  0  0  0  0  0  0
   -6.2251    2.2460    0.7492 H   0  0  0  0  0  0  0  0  0  0  0  0
   -0.7877   -0.4455    0.0435 H   0  0  0  0  0  0  0  0  0  0  0  0
    7.3859    1.6500   -0.1001 H   0  0  0  0  0  0  0  0  0  0  0  0
   -7.6556    0.6024    0.4109 H   0  0  0  0  0  0  0  0  0  0  0  0
   -5.8829   -2.6576    1.1294 H   0  0  0  0  0  0  0  0  0  0  0  0
   -4.1557   -3.0177    0.8030 H   0  0  0  0  0  0  0  0  0  0  0  0
   -5.4345   -3.8793   -0.0812 H   0  0  0  0  0  0  0  0  0  0  0  0
    3.7266   -3.9769    0.7611 H   0  0  0  0  0  0  0  0  0  0  0  0
  1 14  1  0  0  0  0
  1 24  1  0  0  0  0
  2 17  1  0  0  0  0
  2 34  1  0  0  0  0
  3 19  1  0  0  0  0
  3 35  1  0  0  0  0
  4 20  2  0  0  0  0
  5 23  1  0  0  0  0
  5 39  1  0  0  0  0
  6 23  2  0  0  0  0
  7  8  1  0  0  0  0
  7 20  1  0  0  0  0
  7 26  1  0  0  0  0
  8  9  2  0  0  0  0
  8 11  1  0  0  0  0
  9 13  1  0  0  0  0
  9 23  1  0  0  0  0
 10 12  2  0  0  0  0
 10 15  1  0  0  0  0
 10 16  1  0  0  0  0
 11 18  2  0  0  0  0
 11 25  1  0  0  0  0
 12 14  1  0  0  0  0
 12 27  1  0  0  0  0
 13 17  2  0  0  0  0
 13 28  1  0  0  0  0
 14 19  2  0  0  0  0
 15 21  2  0  0  0  0
 15 29  1  0  0  0  0
 16 22  2  0  0  0  0
 16 30  1  0  0  0  0
 17 18  1  0  0  0  0
 18 31  1  0  0  0  0
 19 21  1  0  0  0  0
 20 22  1  0  0  0  0
 21 32  1  0  0  0  0
 22 33  1  0  0  0  0
 24 36  1  0  0  0  0
 24 37  1  0  0  0  0
 24 38  1  0  0  0  0
M  END
> <PUBCHEM_COMPOUND_CID>
10087955

> <PUBCHEM_CONFORMER_RMSD>
0.8

> <PUBCHEM_CONFORMER_DIVERSEORDER>
1
27
13
12
11
18
24
8
16
5
26
9
20
25
6
22
17
2
7
10
19
3
21
14
15
23
4

> <PUBCHEM_MMFF94_PARTIAL_CHARGES>
36
1 -0.36
10 0.03
11 -0.15
12 -0.15
13 -0.15
14 0.08
15 -0.15
16 -0.18
17 0.08
18 -0.15
19 0.08
2 -0.53
20 0.62
21 -0.15
22 -0.14
23 0.63
24 0.28
25 0.15
26 0.37
27 0.15
28 0.15
29 0.15
3 -0.53
30 0.15
31 0.15
32 0.15
33 0.15
34 0.45
35 0.45
39 0.5
4 -0.57
5 -0.65
6 -0.57
7 -0.55
8 0.12
9 0.09

> <PUBCHEM_EFFECTIVE_ROTOR_COUNT>
6

> <PUBCHEM_PHARMACOPHORE_FEATURES>
10
1 1 acceptor
1 2 donor
1 3 donor
1 4 acceptor
1 5 acceptor
1 6 acceptor
1 7 donor
3 5 6 23 anion
6 10 12 14 15 19 21 rings
6 8 9 11 13 17 18 rings

> <PUBCHEM_HEAVY_ATOM_COUNT>
24

> <PUBCHEM_ATOM_DEF_STEREO_COUNT>
0

> <PUBCHEM_ATOM_UDEF_STEREO_COUNT>
0

> <PUBCHEM_BOND_DEF_STEREO_COUNT>
1

> <PUBCHEM_BOND_UDEF_STEREO_COUNT>
0

> <PUBCHEM_ISOTOPIC_ATOM_COUNT>
0

> <PUBCHEM_COMPONENT_COUNT>
1

> <PUBCHEM_CACTVS_TAUTO_COUNT>
22

> <PUBCHEM_CONFORMER_ID>
0099EE1300000001

> <PUBCHEM_MMFF94_ENERGY>
86.7781

> <PUBCHEM_FEATURE_SELFOVERLAP>
50.805

> <PUBCHEM_SHAPE_FINGERPRINT>
10299344 5 18413110558519188237
10595046 47 18411700988944464913
10835480 77 18336257943076326565
11315181 36 17632578271475455369
11524674 6 16630808829203475653
11963148 33 18334849550470380762
12107183 9 17621043062189824697
12236239 1 18131071506711004912
12516196 113 18272087193004277752
12596602 18 17632297886739722280
12788726 201 17274546416702734017
13073987 5 18339644443163478417
13167823 11 18342455928538707397
13533116 47 18413107229940509760
14251764 18 18131635582794923929
14341114 176 18412549799573957981
14461889 52 18341043129670609592
15183329 4 18408882936674100803
15196674 1 18411418384422815519
15250474 111 18342162363419677327
15537594 2 18130783468860508783
15799311 1 18338250313895353123
15927050 60 17552071119298582540
16993427 108 16809242889424803698
16993438 75 17970637495894902043
17492 89 18123468268294354526
17844677 252 18412269410871207913
17857418 61 18411698781742257197
1813 80 17386012732468463341
20028762 73 18340200779310927578
20645477 70 18336828585494730186
21033648 29 14333123010303361897
21054139 6 18409447024910140350
21065198 48 18271528589457364329
21197605 99 18339645671561301486
21267235 1 18341616971856343260
21623969 137 18334586741030369003
220451 1 18411427189227202025
22224240 67 18409444813608754880
23522609 53 18193587555997419692
23559900 14 18340479088927941609
239999 70 18202289078819195028
3004659 81 18334859381449080024
338550 245 18336830900007635390
4073 2 18260834842407549747
4214541 1 18412826872235953673
4325135 7 18408604764210976516
4340502 62 18343578552129334008
5104073 3 18272088275435743985
5758199 1 18341331171905958064
6431902 208 18337672039879012335
67856867 119 18338238279387226413
7970288 3 17760927338724576842
999808 66 17968671501380954347

> <PUBCHEM_SHAPE_MULTIPOLES>
453.71
18.77
2.87
0.66
4.39
2.1
0.01
2.25
0.48
0.12
0.27
0.15
0.08
-0.68

> <PUBCHEM_SHAPE_SELFOVERLAP>
975.612

> <PUBCHEM_SHAPE_VOLUME>
248.5

> <PUBCHEM_COORDINATE_TYPE>
2
5
10

$$$$
