101256943
  -OEChem-03102308143D

 48 47  0     1  0  0  0  0  0999 V2000
   -3.8193   -3.6121    0.4059 O   0  0  0  0  0  0  0  0  0  0  0  0
    3.7191   -1.4841   -0.4028 O   0  0  0  0  0  0  0  0  0  0  0  0
    5.1906    0.2106   -0.9499 O   0  0  0  0  0  0  0  0  0  0  0  0
   -1.8727    2.9834   -0.5431 C   0  0  0  0  0  0  0  0  0  0  0  0
   -2.5674    1.6229   -0.4636 C   0  0  0  0  0  0  0  0  0  0  0  0
   -0.4527    2.9742    0.0332 C   0  0  0  0  0  0  0  0  0  0  0  0
   -3.9790    1.6765   -1.0615 C   0  0  0  0  0  0  0  0  0  0  0  0
    0.3079    4.3014   -0.0404 C   0  0  0  0  0  0  0  0  0  0  0  0
   -4.7129    0.3333   -0.9734 C   0  0  0  0  0  0  0  0  0  0  0  0
    1.6855    4.2512    0.6011 C   0  0  0  0  0  0  0  0  0  0  0  0
   -4.8182   -0.1660    0.4387 C   0  0  0  0  0  0  0  0  0  0  0  0
   -4.3082   -1.3358    0.8531 C   0  0  0  0  0  0  0  0  0  0  0  0
   -3.5725   -2.2841   -0.0453 C   0  0  1  0  0  0  0  0  0  0  0  0
   -2.1363   -1.9826    0.0147 C   0  0  0  0  0  0  0  0  0  0  0  0
   -0.9722   -1.6932    0.0698 C   0  0  0  0  0  0  0  0  0  0  0  0
    2.8974   -0.5564    0.3001 C   0  0  2  0  0  0  0  0  0  0  0  0
    0.3477   -1.3271    0.1435 C   0  0  0  0  0  0  0  0  0  0  0  0
    3.3295   -0.5087    1.7351 C   0  0  0  0  0  0  0  0  0  0  0  0
    1.4978   -0.9891    0.2128 C   0  0  0  0  0  0  0  0  0  0  0  0
    4.8403   -0.9614   -0.9825 C   0  0  0  0  0  0  0  0  0  0  0  0
    5.6020   -2.0458   -1.6822 C   0  0  0  0  0  0  0  0  0  0  0  0
    3.7936    0.5928    2.3368 C   0  0  0  0  0  0  0  0  0  0  0  0
   -1.8288    3.3079   -1.5900 H   0  0  0  0  0  0  0  0  0  0  0  0
   -2.4701    3.7296   -0.0050 H   0  0  0  0  0  0  0  0  0  0  0  0
   -1.9726    0.8859   -1.0139 H   0  0  0  0  0  0  0  0  0  0  0  0
   -2.5992    1.3095    0.5854 H   0  0  0  0  0  0  0  0  0  0  0  0
    0.1340    2.2076   -0.4891 H   0  0  0  0  0  0  0  0  0  0  0  0
   -0.5056    2.6581    1.0829 H   0  0  0  0  0  0  0  0  0  0  0  0
   -3.9241    1.9836   -2.1130 H   0  0  0  0  0  0  0  0  0  0  0  0
   -4.5646    2.4440   -0.5392 H   0  0  0  0  0  0  0  0  0  0  0  0
    0.4131    4.5984   -1.0905 H   0  0  0  0  0  0  0  0  0  0  0  0
   -0.2829    5.0823    0.4528 H   0  0  0  0  0  0  0  0  0  0  0  0
   -5.7302    0.4659   -1.3620 H   0  0  0  0  0  0  0  0  0  0  0  0
   -4.2204   -0.3607   -1.6570 H   0  0  0  0  0  0  0  0  0  0  0  0
    1.6126    3.9963    1.6631 H   0  0  0  0  0  0  0  0  0  0  0  0
    2.3163    3.5023    0.1116 H   0  0  0  0  0  0  0  0  0  0  0  0
    2.1809    5.2233    0.5165 H   0  0  0  0  0  0  0  0  0  0  0  0
   -5.3405    0.4615    1.1561 H   0  0  0  0  0  0  0  0  0  0  0  0
   -4.4263   -1.6082    1.8995 H   0  0  0  0  0  0  0  0  0  0  0  0
   -3.9222   -2.2592   -1.0796 H   0  0  0  0  0  0  0  0  0  0  0  0
   -4.7743   -3.7798    0.3266 H   0  0  0  0  0  0  0  0  0  0  0  0
    2.9570    0.4388   -0.1607 H   0  0  0  0  0  0  0  0  0  0  0  0
    3.2792   -1.4291    2.3128 H   0  0  0  0  0  0  0  0  0  0  0  0
    5.9099   -2.8068   -0.9607 H   0  0  0  0  0  0  0  0  0  0  0  0
    6.4978   -1.6203   -2.1435 H   0  0  0  0  0  0  0  0  0  0  0  0
    4.9822   -2.4869   -2.4668 H   0  0  0  0  0  0  0  0  0  0  0  0
    4.1003    0.5628    3.3766 H   0  0  0  0  0  0  0  0  0  0  0  0
    3.8752    1.5364    1.8087 H   0  0  0  0  0  0  0  0  0  0  0  0
  1 13  1  0  0  0  0
  1 41  1  0  0  0  0
  2 16  1  0  0  0  0
  2 20  1  0  0  0  0
  3 20  2  0  0  0  0
  4  5  1  0  0  0  0
  4  6  1  0  0  0  0
  4 23  1  0  0  0  0
  4 24  1  0  0  0  0
  5  7  1  0  0  0  0
  5 25  1  0  0  0  0
  5 26  1  0  0  0  0
  6  8  1  0  0  0  0
  6 27  1  0  0  0  0
  6 28  1  0  0  0  0
  7  9  1  0  0  0  0
  7 29  1  0  0  0  0
  7 30  1  0  0  0  0
  8 10  1  0  0  0  0
  8 31  1  0  0  0  0
  8 32  1  0  0  0  0
  9 11  1  0  0  0  0
  9 33  1  0  0  0  0
  9 34  1  0  0  0  0
 10 35  1  0  0  0  0
 10 36  1  0  0  0  0
 10 37  1  0  0  0  0
 11 12  2  0  0  0  0
 11 38  1  0  0  0  0
 12 13  1  0  0  0  0
 12 39  1  0  0  0  0
 13 14  1  0  0  0  0
 13 40  1  0  0  0  0
 14 15  3  0  0  0  0
 15 17  1  0  0  0  0
 16 18  1  0  0  0  0
 16 19  1  0  0  0  0
 16 42  1  0  0  0  0
 17 19  3  0  0  0  0
 18 22  2  0  0  0  0
 18 43  1  0  0  0  0
 20 21  1  0  0  0  0
 21 44  1  0  0  0  0
 21 45  1  0  0  0  0
 21 46  1  0  0  0  0
 22 47  1  0  0  0  0
 22 48  1  0  0  0  0
M  END
> <PUBCHEM_COMPOUND_CID>
101256943

> <PUBCHEM_CONFORMER_RMSD>
1

> <PUBCHEM_CONFORMER_DIVERSEORDER>
3
36
44
34
76
61
67
37
72
28
64
38
70
47
68
9
5
43
39
33
66
54
63
62
32
26
18
57
59
14
71
17
7
45
55
69
29
42
53
51
41
73
75
10
15
60
27
20
21
58
30
65
46
74
35
1
16
25
12
8
31
13
40
24
49
4
22
6
23
19
11
56
50
52
2
48

> <PUBCHEM_MMFF94_PARTIAL_CHARGES>
20
1 -0.68
11 -0.29
12 -0.29
13 0.62
14 -0.2
16 0.62
18 -0.29
19 -0.2
2 -0.43
20 0.66
21 0.06
22 -0.3
3 -0.57
38 0.15
39 0.15
41 0.4
43 0.15
47 0.15
48 0.15
9 0.14

> <PUBCHEM_EFFECTIVE_ROTOR_COUNT>
10

> <PUBCHEM_PHARMACOPHORE_FEATURES>
5
1 1 acceptor
1 1 donor
1 10 hydrophobe
1 22 hydrophobe
1 3 acceptor

> <PUBCHEM_HEAVY_ATOM_COUNT>
22

> <PUBCHEM_ATOM_DEF_STEREO_COUNT>
2

> <PUBCHEM_ATOM_UDEF_STEREO_COUNT>
0

> <PUBCHEM_BOND_DEF_STEREO_COUNT>
1

> <PUBCHEM_BOND_UDEF_STEREO_COUNT>
0

> <PUBCHEM_ISOTOPIC_ATOM_COUNT>
0

> <PUBCHEM_COMPONENT_COUNT>
1

> <PUBCHEM_CACTVS_TAUTO_COUNT>
2

> <PUBCHEM_CONFORMER_ID>
06090EEF00000003

> <PUBCHEM_MMFF94_ENERGY>
8.8485

> <PUBCHEM_FEATURE_SELFOVERLAP>
25.372

> <PUBCHEM_SHAPE_FINGERPRINT>
10429389 16 17698179348055682478
10498660 4 18336262353980676904
10670039 82 18262240993710772358
11595378 159 17749101162937009826
12596602 18 16732709345687622371
12788726 201 18187649042186732090
12954195 1 18123482583420436950
14251757 5 18260839201794560715
14681488 357 18342174496654536112
17818456 19 17901084353126627322
2297311 6 18336839632024651783
23557571 272 18411427184948221823
23559900 14 18413106186236972308

> <PUBCHEM_SHAPE_MULTIPOLES>
435.14
12.05
5.01
1.41
5.93
5.84
0.41
-7.15
-2.76
-1.79
0.02
2.03
-0.12
2.54

> <PUBCHEM_SHAPE_SELFOVERLAP>
832.858

> <PUBCHEM_SHAPE_VOLUME>
261.8

> <PUBCHEM_COORDINATE_TYPE>
2
5
10

$$$$
