101491242
  -OEChem-03102309023D

 65 67  0     1  0  0  0  0  0999 V2000
    0.1057    0.4338    2.4350 O   0  0  0  0  0  0  0  0  0  0  0  0
    0.4216   -2.9088   -0.2081 O   0  0  0  0  0  0  0  0  0  0  0  0
   -3.1625    0.2811   -0.3581 O   0  0  0  0  0  0  0  0  0  0  0  0
   -3.0009   -2.4498   -1.7305 O   0  0  0  0  0  0  0  0  0  0  0  0
    1.1342    0.2899   -0.8746 C   0  0  2  0  0  0  0  0  0  0  0  0
    0.8948   -0.6040    0.3752 C   0  0  1  0  0  0  0  0  0  0  0  0
    2.6206    0.7381   -0.7771 C   0  0  0  0  0  0  0  0  0  0  0  0
    3.2538   -0.5484   -0.1747 C   0  0  2  0  0  0  0  0  0  0  0  0
    2.2670   -0.9713    0.9268 C   0  0  0  0  0  0  0  0  0  0  0  0
    0.0240    1.3639   -0.8639 C   0  0  0  0  0  0  0  0  0  0  0  0
   -0.9301    0.9834    0.2907 C   0  0  2  0  0  0  0  0  0  0  0  0
    0.0611    0.3251    1.2208 C   0  0  0  0  0  0  0  0  0  0  0  0
   -0.0049   -1.7702   -0.0352 C   0  0  0  0  0  0  0  0  0  0  0  0
    4.6805   -0.4319    0.3464 C   0  0  0  0  0  0  0  0  0  0  0  0
    2.8579    1.9759    0.1107 C   0  0  0  0  0  0  0  0  0  0  0  0
    3.1814    1.0382   -2.1747 C   0  0  0  0  0  0  0  0  0  0  0  0
   -1.8717   -0.1559   -0.1234 C   0  0  0  0  0  0  0  0  0  0  0  0
   -1.6013    2.1944    0.9268 C   0  0  0  0  0  0  0  0  0  0  0  0
   -1.4658   -1.4431   -0.2705 C   0  0  0  0  0  0  0  0  0  0  0  0
    4.9820   -1.5444    1.3503 C   0  0  0  0  0  0  0  0  0  0  0  0
    5.6820   -0.4683   -0.8075 C   0  0  0  0  0  0  0  0  0  0  0  0
   -2.0993    3.1484   -0.1175 C   0  0  0  0  0  0  0  0  0  0  0  0
   -2.3902   -2.5200   -0.6616 C   0  0  0  0  0  0  0  0  0  0  0  0
   -2.5615   -3.6857    0.3104 C   0  0  0  0  0  0  0  0  0  0  0  0
   -2.1695    4.4909   -0.0410 C   0  0  0  0  0  0  0  0  0  0  0  0
   -2.8370   -4.9882   -0.4372 C   0  0  0  0  0  0  0  0  0  0  0  0
   -3.6866   -3.3759    1.2925 C   0  0  0  0  0  0  0  0  0  0  0  0
   -1.7045    5.2097    1.1975 C   0  0  0  0  0  0  0  0  0  0  0  0
   -2.6809    5.3934   -1.1277 C   0  0  0  0  0  0  0  0  0  0  0  0
    1.0155   -0.3150   -1.7864 H   0  0  0  0  0  0  0  0  0  0  0  0
    3.2235   -1.3437   -0.9359 H   0  0  0  0  0  0  0  0  0  0  0  0
    2.3483   -2.0405    1.1488 H   0  0  0  0  0  0  0  0  0  0  0  0
    2.4626   -0.4268    1.8579 H   0  0  0  0  0  0  0  0  0  0  0  0
    0.4349    2.3669   -0.7325 H   0  0  0  0  0  0  0  0  0  0  0  0
   -0.4945    1.3697   -1.8313 H   0  0  0  0  0  0  0  0  0  0  0  0
    4.8350    0.5004    0.8970 H   0  0  0  0  0  0  0  0  0  0  0  0
    2.3832    2.8684   -0.3090 H   0  0  0  0  0  0  0  0  0  0  0  0
    2.4791    1.8432    1.1279 H   0  0  0  0  0  0  0  0  0  0  0  0
    3.9207    2.2293    0.1797 H   0  0  0  0  0  0  0  0  0  0  0  0
    4.1440    1.5532   -2.1403 H   0  0  0  0  0  0  0  0  0  0  0  0
    3.2932    0.1288   -2.7746 H   0  0  0  0  0  0  0  0  0  0  0  0
    2.5007    1.7040   -2.7190 H   0  0  0  0  0  0  0  0  0  0  0  0
   -2.4351    1.8856    1.5694 H   0  0  0  0  0  0  0  0  0  0  0  0
   -0.8750    2.6931    1.5785 H   0  0  0  0  0  0  0  0  0  0  0  0
    4.7715   -2.5335    0.9287 H   0  0  0  0  0  0  0  0  0  0  0  0
    4.4219   -1.4320    2.2833 H   0  0  0  0  0  0  0  0  0  0  0  0
    6.0419   -1.5297    1.6303 H   0  0  0  0  0  0  0  0  0  0  0  0
    5.4793   -1.2932   -1.4986 H   0  0  0  0  0  0  0  0  0  0  0  0
    6.7012   -0.6050   -0.4276 H   0  0  0  0  0  0  0  0  0  0  0  0
    5.6975    0.4655   -1.3692 H   0  0  0  0  0  0  0  0  0  0  0  0
   -2.4858    2.7025   -1.0329 H   0  0  0  0  0  0  0  0  0  0  0  0
   -3.7063   -0.4795   -0.6222 H   0  0  0  0  0  0  0  0  0  0  0  0
   -1.6376   -3.8230    0.8816 H   0  0  0  0  0  0  0  0  0  0  0  0
   -3.7791   -4.9400   -0.9944 H   0  0  0  0  0  0  0  0  0  0  0  0
   -2.0377   -5.1978   -1.1562 H   0  0  0  0  0  0  0  0  0  0  0  0
   -2.8977   -5.8314    0.2587 H   0  0  0  0  0  0  0  0  0  0  0  0
   -4.6372   -3.2193    0.7705 H   0  0  0  0  0  0  0  0  0  0  0  0
   -3.4706   -2.4640    1.8597 H   0  0  0  0  0  0  0  0  0  0  0  0
   -3.8194   -4.1944    2.0074 H   0  0  0  0  0  0  0  0  0  0  0  0
   -0.7189    5.6546    1.0262 H   0  0  0  0  0  0  0  0  0  0  0  0
   -1.6528    4.5779    2.0874 H   0  0  0  0  0  0  0  0  0  0  0  0
   -2.4025    6.0178    1.4451 H   0  0  0  0  0  0  0  0  0  0  0  0
   -3.5543    5.9544   -0.7802 H   0  0  0  0  0  0  0  0  0  0  0  0
   -1.9046    6.1037   -1.4298 H   0  0  0  0  0  0  0  0  0  0  0  0
   -2.9791    4.8266   -2.0159 H   0  0  0  0  0  0  0  0  0  0  0  0
  1 12  2  0  0  0  0
  2 13  2  0  0  0  0
  3 17  1  0  0  0  0
  3 52  1  0  0  0  0
  4 23  2  0  0  0  0
  5  6  1  0  0  0  0
  5  7  1  0  0  0  0
  5 10  1  0  0  0  0
  5 30  1  0  0  0  0
  6  9  1  0  0  0  0
  6 12  1  0  0  0  0
  6 13  1  0  0  0  0
  7  8  1  0  0  0  0
  7 15  1  0  0  0  0
  7 16  1  0  0  0  0
  8  9  1  0  0  0  0
  8 14  1  0  0  0  0
  8 31  1  0  0  0  0
  9 32  1  0  0  0  0
  9 33  1  0  0  0  0
 10 11  1  0  0  0  0
 10 34  1  0  0  0  0
 10 35  1  0  0  0  0
 11 12  1  0  0  0  0
 11 17  1  0  0  0  0
 11 18  1  0  0  0  0
 13 19  1  0  0  0  0
 14 20  1  0  0  0  0
 14 21  1  0  0  0  0
 14 36  1  0  0  0  0
 15 37  1  0  0  0  0
 15 38  1  0  0  0  0
 15 39  1  0  0  0  0
 16 40  1  0  0  0  0
 16 41  1  0  0  0  0
 16 42  1  0  0  0  0
 17 19  2  0  0  0  0
 18 22  1  0  0  0  0
 18 43  1  0  0  0  0
 18 44  1  0  0  0  0
 19 23  1  0  0  0  0
 20 45  1  0  0  0  0
 20 46  1  0  0  0  0
 20 47  1  0  0  0  0
 21 48  1  0  0  0  0
 21 49  1  0  0  0  0
 21 50  1  0  0  0  0
 22 25  2  0  0  0  0
 22 51  1  0  0  0  0
 23 24  1  0  0  0  0
 24 26  1  0  0  0  0
 24 27  1  0  0  0  0
 24 53  1  0  0  0  0
 25 28  1  0  0  0  0
 25 29  1  0  0  0  0
 26 54  1  0  0  0  0
 26 55  1  0  0  0  0
 26 56  1  0  0  0  0
 27 57  1  0  0  0  0
 27 58  1  0  0  0  0
 27 59  1  0  0  0  0
 28 60  1  0  0  0  0
 28 61  1  0  0  0  0
 28 62  1  0  0  0  0
 29 63  1  0  0  0  0
 29 64  1  0  0  0  0
 29 65  1  0  0  0  0
M  END
> <PUBCHEM_COMPOUND_CID>
101491242

> <PUBCHEM_CONFORMER_RMSD>
0.8

> <PUBCHEM_CONFORMER_DIVERSEORDER>
1
41
75
86
68
58
54
83
79
70
55
69
81
73
48
44
61
46
6
56
80
57
27
15
37
87
52
82
49
10
85
7
34
71
59
66
38
60
21
42
77
40
63
51
18
78
67
65
64
17
33
72
25
62
47
50
16
84
29
3
45
89
32
22
23
76
13
88
53
43
9
26
20
2
74
35
24
19
5
28
12
39
30
4
14
11
8
36
31

> <PUBCHEM_MMFF94_PARTIAL_CHARGES>
19
1 -0.57
11 0.2
12 0.45
13 0.49
17 -0.06
18 0.14
19 0.03
2 -0.57
22 -0.29
23 0.49
24 0.06
25 -0.28
28 0.14
29 0.14
3 -0.53
4 -0.57
51 0.15
52 0.45
6 0.12

> <PUBCHEM_EFFECTIVE_ROTOR_COUNT>
5.8

> <PUBCHEM_PHARMACOPHORE_FEATURES>
10
1 1 acceptor
1 2 acceptor
1 3 donor
1 4 acceptor
3 14 20 21 hydrophobe
3 24 26 27 hydrophobe
3 25 28 29 hydrophobe
3 7 15 16 hydrophobe
5 5 6 7 8 9 rings
8 5 6 10 11 12 13 17 19 rings

> <PUBCHEM_HEAVY_ATOM_COUNT>
29

> <PUBCHEM_ATOM_DEF_STEREO_COUNT>
2

> <PUBCHEM_ATOM_UDEF_STEREO_COUNT>
2

> <PUBCHEM_BOND_DEF_STEREO_COUNT>
0

> <PUBCHEM_BOND_UDEF_STEREO_COUNT>
0

> <PUBCHEM_ISOTOPIC_ATOM_COUNT>
0

> <PUBCHEM_COMPONENT_COUNT>
1

> <PUBCHEM_CACTVS_TAUTO_COUNT>
7

> <PUBCHEM_CONFORMER_ID>
060CA22A00000001

> <PUBCHEM_MMFF94_ENERGY>
104.8388

> <PUBCHEM_FEATURE_SELFOVERLAP>
50.796

> <PUBCHEM_SHAPE_FINGERPRINT>
10258939 38 15975176650708702894
10411042 1 18194965368652196822
11763715 3 18119271672702338876
12160290 23 18130520642969277021
12293681 160 17323544233129973300
12553582 1 18053671548719304318
12788726 201 18336000738631978070
13009979 54 18261674869665976406
13134695 92 17980186805931487695
13140716 1 18338516442853753459
13540713 5 17968100803253575020
13583140 156 17632282455544654490
13757389 114 18192733158743206828
138480 1 16393243587449555301
13955234 65 17042050062047122833
14294032 229 18198064686205042449
14790565 3 17905893570142551956
15042514 8 18411146856869950299
15081414 286 16322034807909456369
15420108 30 17831846959247827672
15439362 3 17112975162902423860
15664445 248 17619927479137162124
16087824 20 18410296896607701433
16945 1 18341899558332758606
17980427 26 16113391610081681168
1813 80 17840888569707100503
20101258 96 18338807826230286976
20600515 1 17915767420735637393
20642791 105 18193826055757414441
20739085 24 17982190098979682675
20775438 99 17187798506327211447
21033648 29 18054499211003977760
21120745 212 18337687419766353652
21304303 282 18122882283982698501
23366157 5 17401488646550253251
23419403 2 17130684236639329144
23559900 14 18201437013158086642
3091708 16 9058413961139360953
350125 39 18266460906206010617
38695281 34 17833547899377985960
4017518 198 17551780435769909230
463206 1 17830176058347025018
5385378 56 17259346566034247713
59755656 520 17699869335997662216
6058803 2 18114186316071459972
7164475 11 18337678628242228462
79837 15 18266460893167472137
9981440 41 17977946783145254385

> <PUBCHEM_SHAPE_MULTIPOLES>
573.33
7.71
6.92
1.49
11.08
2.61
0.1
-0.89
-0.32
-13.13
-0.27
0.33
0.26
-0.77

> <PUBCHEM_SHAPE_SELFOVERLAP>
1216.205

> <PUBCHEM_SHAPE_VOLUME>
325.9

> <PUBCHEM_COORDINATE_TYPE>
2
5
10

$$$$
