101445018
  -OEChem-03112307053D

 36 37  0     1  0  0  0  0  0999 V2000
   -1.7560    2.3280    0.6813 O   0  0  0  0  0  0  0  0  0  0  0  0
   -0.9398   -2.9317    0.5246 O   0  0  0  0  0  0  0  0  0  0  0  0
   -2.2447   -1.1007    0.0398 N   0  0  0  0  0  0  0  0  0  0  0  0
   -0.3759    0.5237    1.0103 N   0  0  0  0  0  0  0  0  0  0  0  0
   -2.2968    0.2633   -0.4628 C   0  0  1  0  0  0  0  0  0  0  0  0
   -3.7358    0.7422   -0.5889 C   0  0  0  0  0  0  0  0  0  0  0  0
    0.1154   -0.7694    0.5626 C   0  0  2  0  0  0  0  0  0  0  0  0
   -1.4962    1.1423    0.4857 C   0  0  0  0  0  0  0  0  0  0  0  0
    0.9375   -0.6754   -0.7133 C   0  0  0  0  0  0  0  0  0  0  0  0
   -1.0634   -1.7131    0.4137 C   0  0  0  0  0  0  0  0  0  0  0  0
   -4.5150   -0.1319   -1.5726 C   0  0  0  0  0  0  0  0  0  0  0  0
   -4.4263    0.7525    0.7755 C   0  0  0  0  0  0  0  0  0  0  0  0
    2.3367   -0.1888   -0.4430 C   0  0  0  0  0  0  0  0  0  0  0  0
    2.6178    1.1772   -0.4705 C   0  0  0  0  0  0  0  0  0  0  0  0
    3.3517   -1.1043   -0.1652 C   0  0  0  0  0  0  0  0  0  0  0  0
    3.9141    1.6277   -0.2201 C   0  0  0  0  0  0  0  0  0  0  0  0
    4.6478   -0.6539    0.0852 C   0  0  0  0  0  0  0  0  0  0  0  0
    4.9290    0.7122    0.0577 C   0  0  0  0  0  0  0  0  0  0  0  0
   -1.8029    0.2792   -1.4409 H   0  0  0  0  0  0  0  0  0  0  0  0
   -3.7378    1.7687   -0.9782 H   0  0  0  0  0  0  0  0  0  0  0  0
    0.7200   -1.1591    1.3916 H   0  0  0  0  0  0  0  0  0  0  0  0
   -3.0375   -1.7159   -0.1100 H   0  0  0  0  0  0  0  0  0  0  0  0
    0.4664   -0.0208   -1.4567 H   0  0  0  0  0  0  0  0  0  0  0  0
    0.9986   -1.6590   -1.1985 H   0  0  0  0  0  0  0  0  0  0  0  0
    0.2184    1.0694    1.6269 H   0  0  0  0  0  0  0  0  0  0  0  0
   -5.4926    0.3182   -1.7797 H   0  0  0  0  0  0  0  0  0  0  0  0
   -3.9853   -0.2174   -2.5272 H   0  0  0  0  0  0  0  0  0  0  0  0
   -4.7036   -1.1397   -1.1906 H   0  0  0  0  0  0  0  0  0  0  0  0
   -5.4602    1.1005    0.6670 H   0  0  0  0  0  0  0  0  0  0  0  0
   -3.9445    1.4238    1.4912 H   0  0  0  0  0  0  0  0  0  0  0  0
   -4.4705   -0.2455    1.2244 H   0  0  0  0  0  0  0  0  0  0  0  0
    1.8363    1.9009   -0.6864 H   0  0  0  0  0  0  0  0  0  0  0  0
    3.1448   -2.1709   -0.1387 H   0  0  0  0  0  0  0  0  0  0  0  0
    4.1331    2.6912   -0.2415 H   0  0  0  0  0  0  0  0  0  0  0  0
    5.4381   -1.3666    0.3021 H   0  0  0  0  0  0  0  0  0  0  0  0
    5.9382    1.0628    0.2528 H   0  0  0  0  0  0  0  0  0  0  0  0
  1  8  2  0  0  0  0
  2 10  2  0  0  0  0
  3  5  1  0  0  0  0
  3 10  1  0  0  0  0
  3 22  1  0  0  0  0
  4  7  1  0  0  0  0
  4  8  1  0  0  0  0
  4 25  1  0  0  0  0
  5  6  1  0  0  0  0
  5  8  1  0  0  0  0
  5 19  1  0  0  0  0
  6 11  1  0  0  0  0
  6 12  1  0  0  0  0
  6 20  1  0  0  0  0
  7  9  1  0  0  0  0
  7 10  1  0  0  0  0
  7 21  1  0  0  0  0
  9 13  1  0  0  0  0
  9 23  1  0  0  0  0
  9 24  1  0  0  0  0
 11 26  1  0  0  0  0
 11 27  1  0  0  0  0
 11 28  1  0  0  0  0
 12 29  1  0  0  0  0
 12 30  1  0  0  0  0
 12 31  1  0  0  0  0
 13 14  2  0  0  0  0
 13 15  1  0  0  0  0
 14 16  1  0  0  0  0
 14 32  1  0  0  0  0
 15 17  2  0  0  0  0
 15 33  1  0  0  0  0
 16 18  2  0  0  0  0
 16 34  1  0  0  0  0
 17 18  1  0  0  0  0
 17 35  1  0  0  0  0
 18 36  1  0  0  0  0
M  END
> <PUBCHEM_COMPOUND_CID>
101445018

> <PUBCHEM_CONFORMER_RMSD>
0.6

> <PUBCHEM_CONFORMER_DIVERSEORDER>
1
4
22
30
5
6
10
31
21
28
12
2
29
15
25
9
20
19
26
8
27
24
17
3
14
23
18
11
13
7
16

> <PUBCHEM_MMFF94_PARTIAL_CHARGES>
22
1 -0.57
10 0.57
13 -0.14
14 -0.15
15 -0.15
16 -0.15
17 -0.15
18 -0.15
2 -0.57
22 0.37
25 0.37
3 -0.73
32 0.15
33 0.15
34 0.15
35 0.15
36 0.15
4 -0.73
5 0.36
7 0.36
8 0.57
9 0.14

> <PUBCHEM_EFFECTIVE_ROTOR_COUNT>
3.8

> <PUBCHEM_PHARMACOPHORE_FEATURES>
7
1 1 acceptor
1 2 acceptor
1 3 donor
1 4 donor
3 6 11 12 hydrophobe
6 13 14 15 16 17 18 rings
6 3 4 5 7 8 10 rings

> <PUBCHEM_HEAVY_ATOM_COUNT>
18

> <PUBCHEM_ATOM_DEF_STEREO_COUNT>
2

> <PUBCHEM_ATOM_UDEF_STEREO_COUNT>
0

> <PUBCHEM_BOND_DEF_STEREO_COUNT>
0

> <PUBCHEM_BOND_UDEF_STEREO_COUNT>
0

> <PUBCHEM_ISOTOPIC_ATOM_COUNT>
0

> <PUBCHEM_COMPONENT_COUNT>
1

> <PUBCHEM_CACTVS_TAUTO_COUNT>
8

> <PUBCHEM_CONFORMER_ID>
060BED9A00000001

> <PUBCHEM_MMFF94_ENERGY>
56.652

> <PUBCHEM_FEATURE_SELFOVERLAP>
35.529

> <PUBCHEM_SHAPE_FINGERPRINT>
10014705 185 18041276664155302260
10366900 7 17988925600227386136
11370993 70 18408881837152300142
12119455 92 17603298233086550367
12403260 363 18339636733786449936
12500047 106 18335136553011264186
12592029 89 17676767565626375835
13380535 76 18412830170438345878
13533116 47 18341327791429098866
13583140 156 16950280728261777137
13675066 3 17022623078499391894
14790565 3 18269846332920902985
14943859 89 17458343039527952939
15420108 30 16184966411631151296
15442244 35 18265899060575460418
17349148 13 18343017757816822710
17802600 8 18412540994743606848
1813 80 12967126129410717682
18186145 218 18335986389172707087
187816 3 18413102866585922783
192875 21 18341889680314491036
200 152 17561363984953027476
20300324 65 17917708002765643237
20645476 183 18040425612228198403
20645477 56 18187365458391498292
20645477 70 18342460309875341670
20871999 31 18270109244948317647
21033648 29 17968082123360188884
21033650 10 17344377525686076632
21524375 3 18187369778944235034
22224240 67 18261685813954479051
23402539 116 18342171150774461181
23402655 69 18201999876584849965
23557571 272 18197511807569738918
23559900 14 18413671314556704674
328317 168 18409445894816659973
351380 180 18343016684048826420
3545911 37 18408890654920268092
4028521 119 18408037403299762005
5104073 3 18334857268525637818
57005193 9 18335415777361502918
633830 44 18270124500545221103
69090 78 18407758135994218078
9709674 26 18272378550922165830

> <PUBCHEM_SHAPE_MULTIPOLES>
348.73
9.74
2
0.99
3.01
0.58
0.15
-2.55
1.59
-0.16
-0.42
-0.9
-0.05
-0.27

> <PUBCHEM_SHAPE_SELFOVERLAP>
729.802

> <PUBCHEM_SHAPE_VOLUME>
195.2

> <PUBCHEM_COORDINATE_TYPE>
2
5
10

$$$$
