10245047
  -OEChem-03092322193D

 38 39  0     0  0  0  0  0  0999 V2000
   -4.7931   -2.0014   -0.6541 O   0  0  0  0  0  0  0  0  0  0  0  0
   -6.8006   -0.2253    0.0819 O   0  0  0  0  0  0  0  0  0  0  0  0
    1.1982    2.4296   -0.1348 O   0  0  0  0  0  0  0  0  0  0  0  0
    4.4672   -3.0308   -0.4110 O   0  0  0  0  0  0  0  0  0  0  0  0
    2.5714   -2.4161    0.6819 O   0  0  0  0  0  0  0  0  0  0  0  0
    1.9565    0.2122    0.0083 N   0  0  0  0  0  0  0  0  0  0  0  0
    3.3656    0.3574    0.0012 C   0  0  0  0  0  0  0  0  0  0  0  0
   -2.8433    1.0263   -0.0264 C   0  0  0  0  0  0  0  0  0  0  0  0
    4.1846   -0.7575    0.0730 C   0  0  0  0  0  0  0  0  0  0  0  0
   -3.1640   -0.2895   -0.3606 C   0  0  0  0  0  0  0  0  0  0  0  0
   -4.4922   -0.7140   -0.3255 C   0  0  0  0  0  0  0  0  0  0  0  0
   -3.8509    1.9175    0.3426 C   0  0  0  0  0  0  0  0  0  0  0  0
   -1.4584    1.4690   -0.0630 C   0  0  0  0  0  0  0  0  0  0  0  0
    3.8944    1.6361   -0.0790 C   0  0  0  0  0  0  0  0  0  0  0  0
   -5.4997    0.1773    0.0436 C   0  0  0  0  0  0  0  0  0  0  0  0
   -5.1791    1.4932    0.3776 C   0  0  0  0  0  0  0  0  0  0  0  0
    5.5693   -0.5902    0.0645 C   0  0  0  0  0  0  0  0  0  0  0  0
    1.0054    1.2220   -0.0571 C   0  0  0  0  0  0  0  0  0  0  0  0
   -0.3783    0.6564   -0.0233 C   0  0  0  0  0  0  0  0  0  0  0  0
    5.2792    1.8035   -0.0877 C   0  0  0  0  0  0  0  0  0  0  0  0
    6.1166    0.6904   -0.0159 C   0  0  0  0  0  0  0  0  0  0  0  0
    3.6458   -2.1092    0.1595 C   0  0  0  0  0  0  0  0  0  0  0  0
   -4.7946   -2.9570    0.4045 C   0  0  0  0  0  0  0  0  0  0  0  0
   -2.4110   -1.0074   -0.6738 H   0  0  0  0  0  0  0  0  0  0  0  0
   -3.6200    2.9466    0.6078 H   0  0  0  0  0  0  0  0  0  0  0  0
    1.6191   -0.7451    0.0656 H   0  0  0  0  0  0  0  0  0  0  0  0
   -1.3150    2.5460   -0.1165 H   0  0  0  0  0  0  0  0  0  0  0  0
    3.3237    2.5500   -0.1373 H   0  0  0  0  0  0  0  0  0  0  0  0
   -5.9541    2.1977    0.6673 H   0  0  0  0  0  0  0  0  0  0  0  0
    6.2496   -1.4351    0.1331 H   0  0  0  0  0  0  0  0  0  0  0  0
   -0.4696   -0.4209    0.0579 H   0  0  0  0  0  0  0  0  0  0  0  0
    5.7070    2.8001   -0.1493 H   0  0  0  0  0  0  0  0  0  0  0  0
    7.1948    0.8214   -0.0193 H   0  0  0  0  0  0  0  0  0  0  0  0
   -7.3558    0.5236    0.3591 H   0  0  0  0  0  0  0  0  0  0  0  0
   -5.5354   -2.6895    1.1647 H   0  0  0  0  0  0  0  0  0  0  0  0
   -3.8006   -3.0290    0.8572 H   0  0  0  0  0  0  0  0  0  0  0  0
   -5.0596   -3.9317   -0.0141 H   0  0  0  0  0  0  0  0  0  0  0  0
    4.0977   -3.9374   -0.3491 H   0  0  0  0  0  0  0  0  0  0  0  0
  1 11  1  0  0  0  0
  1 23  1  0  0  0  0
  2 15  1  0  0  0  0
  2 34  1  0  0  0  0
  3 18  2  0  0  0  0
  4 22  1  0  0  0  0
  4 38  1  0  0  0  0
  5 22  2  0  0  0  0
  6  7  1  0  0  0  0
  6 18  1  0  0  0  0
  6 26  1  0  0  0  0
  7  9  1  0  0  0  0
  7 14  2  0  0  0  0
  8 10  2  0  0  0  0
  8 12  1  0  0  0  0
  8 13  1  0  0  0  0
  9 17  2  0  0  0  0
  9 22  1  0  0  0  0
 10 11  1  0  0  0  0
 10 24  1  0  0  0  0
 11 15  2  0  0  0  0
 12 16  2  0  0  0  0
 12 25  1  0  0  0  0
 13 19  2  0  0  0  0
 13 27  1  0  0  0  0
 14 20  1  0  0  0  0
 14 28  1  0  0  0  0
 15 16  1  0  0  0  0
 16 29  1  0  0  0  0
 17 21  1  0  0  0  0
 17 30  1  0  0  0  0
 18 19  1  0  0  0  0
 19 31  1  0  0  0  0
 20 21  2  0  0  0  0
 20 32  1  0  0  0  0
 21 33  1  0  0  0  0
 23 35  1  0  0  0  0
 23 36  1  0  0  0  0
 23 37  1  0  0  0  0
M  END
> <PUBCHEM_COMPOUND_CID>
10245047

> <PUBCHEM_CONFORMER_RMSD>
0.8

> <PUBCHEM_CONFORMER_DIVERSEORDER>
1
20
14
15
10
23
8
9
19
11
25
18
12
3
22
6
21
7
17
24
13
2
4
16
5

> <PUBCHEM_MMFF94_PARTIAL_CHARGES>
35
1 -0.36
10 -0.15
11 0.08
12 -0.15
13 -0.18
14 -0.15
15 0.08
16 -0.15
17 -0.15
18 0.62
19 -0.14
2 -0.53
20 -0.15
21 -0.15
22 0.63
23 0.28
24 0.15
25 0.15
26 0.37
27 0.15
28 0.15
29 0.15
3 -0.57
30 0.15
31 0.15
32 0.15
33 0.15
34 0.45
38 0.5
4 -0.65
5 -0.57
6 -0.55
7 0.12
8 0.03
9 0.09

> <PUBCHEM_EFFECTIVE_ROTOR_COUNT>
6

> <PUBCHEM_PHARMACOPHORE_FEATURES>
9
1 1 acceptor
1 2 donor
1 3 acceptor
1 4 acceptor
1 5 acceptor
1 6 donor
3 4 5 22 anion
6 7 9 14 17 20 21 rings
6 8 10 11 12 15 16 rings

> <PUBCHEM_HEAVY_ATOM_COUNT>
23

> <PUBCHEM_ATOM_DEF_STEREO_COUNT>
0

> <PUBCHEM_ATOM_UDEF_STEREO_COUNT>
0

> <PUBCHEM_BOND_DEF_STEREO_COUNT>
1

> <PUBCHEM_BOND_UDEF_STEREO_COUNT>
0

> <PUBCHEM_ISOTOPIC_ATOM_COUNT>
0

> <PUBCHEM_COMPONENT_COUNT>
1

> <PUBCHEM_CACTVS_TAUTO_COUNT>
9

> <PUBCHEM_CONFORMER_ID>
009C53B700000001

> <PUBCHEM_MMFF94_ENERGY>
84.674

> <PUBCHEM_FEATURE_SELFOVERLAP>
45.729

> <PUBCHEM_SHAPE_FINGERPRINT>
10595046 47 18412263947493121520
11315181 36 17632297904558115529
11524674 6 16702021998274393815
12107183 9 17693100660517484152
12236239 1 18201440255083480912
12516196 113 18344143691825538720
12596602 18 17775568654307046512
12788726 201 17346041060713446089
13073987 5 18341614780806292105
13167823 11 18412824659736465413
13533116 47 18343019973619248472
14251764 18 18131354112102631097
14341114 176 18411422800044691773
14461889 52 18340761659036364984
15183329 4 18409728460989266443
15196674 1 18411418388622785310
15250474 111 18342725334668528679
15537594 2 18202278125845722006
15799311 1 18338532892383162187
17492 89 18123749756234990958
17834072 33 18410855460355339960
17844677 252 18411424981419274769
17857418 61 18410290315778826613
1813 80 17313109617993638069
19427546 62 18263364862515204588
20028762 73 18339919313034888890
20645477 70 18336827494673257256
21033648 29 14117514281780769929
21065198 48 18272092647528243705
21197605 99 18339082721803013482
21267235 1 18341054021923962468
21623969 137 18187657906835687779
220451 1 18412272722100705749
22950370 63 18411982442414690500
23424784 1240 18339936964448356314
23522609 53 18193587560265993740
23559900 14 18339634668213675121
239999 70 18201444653968184294
3004659 81 18333732386526063000
314194 84 18272083920053964694
338550 245 18335142046005436838
4073 2 18261397792302929267
4214541 1 18412262822612688005
4325135 7 18409167718691493196
4340502 62 18342168991181364728
46194498 28 17458627838946936868
465052 167 18130508527230467414
5104073 3 18272369758780934097
559249 180 18411979127570090269
6431902 208 18265332983638531819
67856867 119 18337956821542957661
7495541 125 17917426575007569728
7970288 3 17761772871845889850
999808 66 17968390030651751211

> <PUBCHEM_SHAPE_MULTIPOLES>
439
17.58
2.94
0.66
4.61
2.03
0.01
3.22
0.15
-0.32
0.14
0.13
0.07
-0.37

> <PUBCHEM_SHAPE_SELFOVERLAP>
942.044

> <PUBCHEM_SHAPE_VOLUME>
240.9

> <PUBCHEM_COORDINATE_TYPE>
2
5
10

$$$$
