10338075
  -OEChem-03102308333D

 46 48  0     0  0  0  0  0  0999 V2000
   -4.5232   -0.1934   -1.0519 O   0  0  0  0  0  0  0  0  0  0  0  0
   -0.6225    2.4456   -1.3993 O   0  0  0  0  0  0  0  0  0  0  0  0
   -0.9597   -0.7057    2.1787 O   0  0  0  0  0  0  0  0  0  0  0  0
    0.7033    2.1406    1.7306 O   0  0  0  0  0  0  0  0  0  0  0  0
    7.5173   -1.9193   -1.0715 O   0  0  0  0  0  0  0  0  0  0  0  0
   -5.3283   -1.2090   -0.4151 C   0  0  0  0  0  0  0  0  0  0  0  0
   -4.7294   -1.8556    0.8119 C   0  0  0  0  0  0  0  0  0  0  0  0
   -2.7673   -0.5019    0.6069 C   0  0  0  0  0  0  0  0  0  0  0  0
   -3.2990    0.1128   -0.5285 C   0  0  0  0  0  0  0  0  0  0  0  0
   -6.6510   -0.5334   -0.0341 C   0  0  0  0  0  0  0  0  0  0  0  0
   -5.5852   -2.2843   -1.4776 C   0  0  0  0  0  0  0  0  0  0  0  0
   -3.5295   -1.5287    1.2959 C   0  0  0  0  0  0  0  0  0  0  0  0
   -1.5022   -0.1199    1.0694 C   0  0  0  0  0  0  0  0  0  0  0  0
   -2.5721    1.1021   -1.1962 C   0  0  0  0  0  0  0  0  0  0  0  0
   -0.7778    0.8681    0.4008 C   0  0  0  0  0  0  0  0  0  0  0  0
   -1.3126    1.4787   -0.7314 C   0  0  0  0  0  0  0  0  0  0  0  0
    0.5405    1.2642    0.8842 C   0  0  0  0  0  0  0  0  0  0  0  0
    1.6871    0.4931    0.3176 C   0  0  0  0  0  0  0  0  0  0  0  0
    2.9360    0.7628    0.7265 C   0  0  0  0  0  0  0  0  0  0  0  0
   -0.8306    3.7938   -0.9842 C   0  0  0  0  0  0  0  0  0  0  0  0
    4.1406    0.0581    0.2534 C   0  0  0  0  0  0  0  0  0  0  0  0
    4.0918   -0.6421   -0.9410 C   0  0  0  0  0  0  0  0  0  0  0  0
    5.2982    0.1092    1.0127 C   0  0  0  0  0  0  0  0  0  0  0  0
    5.2320   -1.3097   -1.3882 C   0  0  0  0  0  0  0  0  0  0  0  0
    6.4384   -0.5583    0.5654 C   0  0  0  0  0  0  0  0  0  0  0  0
    6.4053   -1.2678   -0.6350 C   0  0  0  0  0  0  0  0  0  0  0  0
   -5.3078   -2.6234    1.3200 H   0  0  0  0  0  0  0  0  0  0  0  0
   -6.4835    0.2700    0.6934 H   0  0  0  0  0  0  0  0  0  0  0  0
   -7.1160   -0.0641   -0.9091 H   0  0  0  0  0  0  0  0  0  0  0  0
   -7.3662   -1.2431    0.3962 H   0  0  0  0  0  0  0  0  0  0  0  0
   -6.2526   -3.0725   -1.1120 H   0  0  0  0  0  0  0  0  0  0  0  0
   -6.0318   -1.8452   -2.3775 H   0  0  0  0  0  0  0  0  0  0  0  0
   -4.6450   -2.7501   -1.7967 H   0  0  0  0  0  0  0  0  0  0  0  0
   -3.1347   -2.0164    2.1787 H   0  0  0  0  0  0  0  0  0  0  0  0
   -2.9883    1.5789   -2.0806 H   0  0  0  0  0  0  0  0  0  0  0  0
   -0.1140   -0.2947    2.4173 H   0  0  0  0  0  0  0  0  0  0  0  0
    1.4461   -0.2849   -0.3973 H   0  0  0  0  0  0  0  0  0  0  0  0
    3.1147    1.5386    1.4675 H   0  0  0  0  0  0  0  0  0  0  0  0
   -0.6183    3.9177    0.0818 H   0  0  0  0  0  0  0  0  0  0  0  0
   -1.8595    4.1006   -1.1974 H   0  0  0  0  0  0  0  0  0  0  0  0
   -0.1510    4.4351   -1.5519 H   0  0  0  0  0  0  0  0  0  0  0  0
    3.2083   -0.6840   -1.5701 H   0  0  0  0  0  0  0  0  0  0  0  0
    5.3394    0.6564    1.9508 H   0  0  0  0  0  0  0  0  0  0  0  0
    5.1951   -1.8552   -2.3275 H   0  0  0  0  0  0  0  0  0  0  0  0
    7.3494   -0.5224    1.1567 H   0  0  0  0  0  0  0  0  0  0  0  0
    7.3153   -2.3565   -1.9165 H   0  0  0  0  0  0  0  0  0  0  0  0
  1  6  1  0  0  0  0
  1  9  1  0  0  0  0
  2 16  1  0  0  0  0
  2 20  1  0  0  0  0
  3 13  1  0  0  0  0
  3 36  1  0  0  0  0
  4 17  2  0  0  0  0
  5 26  1  0  0  0  0
  5 46  1  0  0  0  0
  6  7  1  0  0  0  0
  6 10  1  0  0  0  0
  6 11  1  0  0  0  0
  7 12  2  0  0  0  0
  7 27  1  0  0  0  0
  8  9  1  0  0  0  0
  8 12  1  0  0  0  0
  8 13  2  0  0  0  0
  9 14  2  0  0  0  0
 10 28  1  0  0  0  0
 10 29  1  0  0  0  0
 10 30  1  0  0  0  0
 11 31  1  0  0  0  0
 11 32  1  0  0  0  0
 11 33  1  0  0  0  0
 12 34  1  0  0  0  0
 13 15  1  0  0  0  0
 14 16  1  0  0  0  0
 14 35  1  0  0  0  0
 15 16  2  0  0  0  0
 15 17  1  0  0  0  0
 17 18  1  0  0  0  0
 18 19  2  0  0  0  0
 18 37  1  0  0  0  0
 19 21  1  0  0  0  0
 19 38  1  0  0  0  0
 20 39  1  0  0  0  0
 20 40  1  0  0  0  0
 20 41  1  0  0  0  0
 21 22  2  0  0  0  0
 21 23  1  0  0  0  0
 22 24  1  0  0  0  0
 22 42  1  0  0  0  0
 23 25  2  0  0  0  0
 23 43  1  0  0  0  0
 24 26  2  0  0  0  0
 24 44  1  0  0  0  0
 25 26  1  0  0  0  0
 25 45  1  0  0  0  0
M  END
> <PUBCHEM_COMPOUND_CID>
10338075

> <PUBCHEM_CONFORMER_RMSD>
0.8

> <PUBCHEM_CONFORMER_DIVERSEORDER>
1
4
6
9
3
5
10
2
11
7
8

> <PUBCHEM_MMFF94_PARTIAL_CHARGES>
35
1 -0.36
12 -0.18
13 0.08
14 -0.15
15 0.09
16 0.08
17 0.47
18 -0.14
19 -0.18
2 -0.36
20 0.28
21 0.03
22 -0.15
23 -0.15
24 -0.15
25 -0.15
26 0.08
27 0.15
3 -0.53
34 0.15
35 0.15
36 0.45
37 0.15
38 0.15
4 -0.57
42 0.15
43 0.15
44 0.15
45 0.15
46 0.45
5 -0.53
6 0.42
7 -0.29
8 0.03
9 0.08

> <PUBCHEM_EFFECTIVE_ROTOR_COUNT>
4.4

> <PUBCHEM_PHARMACOPHORE_FEATURES>
9
1 1 acceptor
1 2 acceptor
1 3 donor
1 4 acceptor
1 5 donor
3 6 10 11 hydrophobe
6 1 6 7 8 9 12 rings
6 21 22 23 24 25 26 rings
6 8 9 13 14 15 16 rings

> <PUBCHEM_HEAVY_ATOM_COUNT>
26

> <PUBCHEM_ATOM_DEF_STEREO_COUNT>
0

> <PUBCHEM_ATOM_UDEF_STEREO_COUNT>
0

> <PUBCHEM_BOND_DEF_STEREO_COUNT>
1

> <PUBCHEM_BOND_UDEF_STEREO_COUNT>
0

> <PUBCHEM_ISOTOPIC_ATOM_COUNT>
0

> <PUBCHEM_COMPONENT_COUNT>
1

> <PUBCHEM_CACTVS_TAUTO_COUNT>
21

> <PUBCHEM_CONFORMER_ID>
009DBF1B00000001

> <PUBCHEM_MMFF94_ENERGY>
98.6242

> <PUBCHEM_FEATURE_SELFOVERLAP>
45.701

> <PUBCHEM_SHAPE_FINGERPRINT>
10 15 12823291317174802610
10674148 151 18261109656386096889
10692045 39 10015044010358879036
12236239 1 16200431394351409523
12422481 6 14261090743487137461
12596602 18 15913332407223100394
12616971 3 15339109127507952432
12760667 363 18343023289402546771
12788726 201 17749097851559624521
12954195 1 18260824857136470557
13140716 1 12606267620856912255
13402501 40 18343022198671296742
13533116 47 17560518508046123880
13540713 5 17170658991933243992
13668630 136 18272369788941098194
13673619 4 18272371966837391160
13685833 64 18131632292195821490
13782708 43 18342452643258224874
13914758 101 17131839746878761737
14251764 30 18272367581332715310
14294032 229 17533494535065740605
14347332 77 18188762839186990178
14508225 48 18113338626049065044
14556957 393 17023477360611604012
14849402 71 14691982801938289146
15183329 4 16660363675545574334
15475509 8 18260547819082509821
15510800 12 18341059613312979743
15575132 122 14056987313765988319
16994733 274 12468622929592786599
17492 89 17757553328565143971
17870717 6 18040718069378087147
1813 80 17274835670171542488
18643901 69 18337962198894025830
19784866 240 18201723967795817777
19958102 18 17240475876090280666
2026 5 18266741269614899226
21267235 1 17822291336542343531
21307412 95 18261954145925912783
21424621 283 8574444144176252023
21623969 137 17632297865692283582
21637258 2 17775279491185842731
2297311 6 18187365419620916861
23198884 109 15213018254108662779
23559900 14 17750232676192281805
2838139 119 12612743618820218982
2916195 48 9007066763969874043
3004659 81 17603304877706775892
335352 9 17967806164249575063
437815 12 18342174483848580321
5104073 3 13470105463099876070
56616090 284 18040435498936666273
59755656 215 18186799166970040210
6608658 132 15647047119066873038

> <PUBCHEM_SHAPE_MULTIPOLES>
505.72
17.24
2.58
1.58
16.11
2.05
0.16
-14.78
-4.45
-1.2
-0.94
-0.13
-0.08
1.46

> <PUBCHEM_SHAPE_SELFOVERLAP>
1102.423

> <PUBCHEM_SHAPE_VOLUME>
276.4

> <PUBCHEM_COORDINATE_TYPE>
2
5
10

$$$$
