1065
  -OEChem-03292323383D

 48 51  0     1  0  0  0  0  0999 V2000
   -0.4127   -0.7919   -2.7418 O   0  0  0  0  0  0  0  0  0  0  0  0
    3.6722    2.6459    0.0325 O   0  0  0  0  0  0  0  0  0  0  0  0
   -2.6920    0.3886   -1.4762 N   0  0  1  0  0  0  0  0  0  0  0  0
    2.5640   -2.7327    0.6697 N   0  0  0  0  0  0  0  0  0  0  0  0
   -2.6846    1.1543    1.0076 C   0  0  2  0  0  0  0  0  0  0  0  0
   -1.6536   -0.3607   -0.7199 C   0  0  2  0  0  0  0  0  0  0  0  0
   -1.5751    0.1180    0.7466 C   0  0  0  0  0  0  0  0  0  0  0  0
   -4.0616    0.5687    0.6178 C   0  0  1  0  0  0  0  0  0  0  0  0
   -2.4090    2.3376    0.0634 C   0  0  0  0  0  0  0  0  0  0  0  0
   -4.0072    0.0924   -0.8538 C   0  0  0  0  0  0  0  0  0  0  0  0
   -2.4578    1.8473   -1.3915 C   0  0  0  0  0  0  0  0  0  0  0  0
   -0.2867   -0.3112   -1.4073 C   0  0  1  0  0  0  0  0  0  0  0  0
   -4.5083   -0.5213    1.5451 C   0  0  0  0  0  0  0  0  0  0  0  0
    0.7407   -1.1339   -0.6715 C   0  0  0  0  0  0  0  0  0  0  0  0
   -5.6162   -0.4615    2.2917 C   0  0  0  0  0  0  0  0  0  0  0  0
    1.9155   -0.5700   -0.1726 C   0  0  0  0  0  0  0  0  0  0  0  0
    0.4712   -2.4796   -0.5072 C   0  0  0  0  0  0  0  0  0  0  0  0
    2.8153   -1.4203    0.5037 C   0  0  0  0  0  0  0  0  0  0  0  0
    2.2096    0.7953   -0.3274 C   0  0  0  0  0  0  0  0  0  0  0  0
    1.4112   -3.2318    0.1675 C   0  0  0  0  0  0  0  0  0  0  0  0
    3.9896   -0.8655    1.0050 C   0  0  0  0  0  0  0  0  0  0  0  0
    3.3914    1.3237    0.1843 C   0  0  0  0  0  0  0  0  0  0  0  0
    4.2823    0.4919    0.8511 C   0  0  0  0  0  0  0  0  0  0  0  0
    4.9019    3.1167    0.5831 C   0  0  0  0  0  0  0  0  0  0  0  0
   -2.6676    1.4860    2.0518 H   0  0  0  0  0  0  0  0  0  0  0  0
   -1.9913   -1.4059   -0.7201 H   0  0  0  0  0  0  0  0  0  0  0  0
   -0.6124    0.5889    0.9763 H   0  0  0  0  0  0  0  0  0  0  0  0
   -1.6755   -0.7355    1.4266 H   0  0  0  0  0  0  0  0  0  0  0  0
   -4.7916    1.3899    0.6696 H   0  0  0  0  0  0  0  0  0  0  0  0
   -1.4247    2.7703    0.2794 H   0  0  0  0  0  0  0  0  0  0  0  0
   -3.1517    3.1290    0.2187 H   0  0  0  0  0  0  0  0  0  0  0  0
   -4.2244   -0.9798   -0.9485 H   0  0  0  0  0  0  0  0  0  0  0  0
   -4.7971    0.5924   -1.4301 H   0  0  0  0  0  0  0  0  0  0  0  0
   -3.2596    2.3724   -1.9271 H   0  0  0  0  0  0  0  0  0  0  0  0
   -1.5429    2.1335   -1.9212 H   0  0  0  0  0  0  0  0  0  0  0  0
    0.0100    0.7260   -1.5189 H   0  0  0  0  0  0  0  0  0  0  0  0
   -3.9063   -1.4246    1.6017 H   0  0  0  0  0  0  0  0  0  0  0  0
   -1.1134   -0.2759   -3.1762 H   0  0  0  0  0  0  0  0  0  0  0  0
   -5.8890   -1.2899    2.9364 H   0  0  0  0  0  0  0  0  0  0  0  0
   -6.2667    0.4058    2.2757 H   0  0  0  0  0  0  0  0  0  0  0  0
   -0.4200   -2.9573   -0.8964 H   0  0  0  0  0  0  0  0  0  0  0  0
    1.5615    1.5014   -0.8314 H   0  0  0  0  0  0  0  0  0  0  0  0
    1.2632   -4.2949    0.3263 H   0  0  0  0  0  0  0  0  0  0  0  0
    4.7032   -1.4970    1.5314 H   0  0  0  0  0  0  0  0  0  0  0  0
    5.2214    0.8291    1.2766 H   0  0  0  0  0  0  0  0  0  0  0  0
    4.9618    4.1891    0.3704 H   0  0  0  0  0  0  0  0  0  0  0  0
    5.7649    2.6457    0.1005 H   0  0  0  0  0  0  0  0  0  0  0  0
    4.9236    3.0047    1.6725 H   0  0  0  0  0  0  0  0  0  0  0  0
  1 12  1  0  0  0  0
  1 38  1  0  0  0  0
  2 22  1  0  0  0  0
  2 24  1  0  0  0  0
  3  6  1  0  0  0  0
  3 10  1  0  0  0  0
  3 11  1  0  0  0  0
  4 18  2  0  0  0  0
  4 20  1  0  0  0  0
  5  7  1  0  0  0  0
  5  8  1  0  0  0  0
  5  9  1  0  0  0  0
  5 25  1  0  0  0  0
  6  7  1  0  0  0  0
  6 12  1  0  0  0  0
  6 26  1  0  0  0  0
  7 27  1  0  0  0  0
  7 28  1  0  0  0  0
  8 10  1  0  0  0  0
  8 13  1  0  0  0  0
  8 29  1  0  0  0  0
  9 11  1  0  0  0  0
  9 30  1  0  0  0  0
  9 31  1  0  0  0  0
 10 32  1  0  0  0  0
 10 33  1  0  0  0  0
 11 34  1  0  0  0  0
 11 35  1  0  0  0  0
 12 14  1  0  0  0  0
 12 36  1  0  0  0  0
 13 15  2  0  0  0  0
 13 37  1  0  0  0  0
 14 16  2  0  0  0  0
 14 17  1  0  0  0  0
 15 39  1  0  0  0  0
 15 40  1  0  0  0  0
 16 18  1  0  0  0  0
 16 19  1  0  0  0  0
 17 20  2  0  0  0  0
 17 41  1  0  0  0  0
 18 21  1  0  0  0  0
 19 22  2  0  0  0  0
 19 42  1  0  0  0  0
 20 43  1  0  0  0  0
 21 23  2  0  0  0  0
 21 44  1  0  0  0  0
 22 23  1  0  0  0  0
 23 45  1  0  0  0  0
 24 46  1  0  0  0  0
 24 47  1  0  0  0  0
 24 48  1  0  0  0  0
M  END
> <PUBCHEM_COMPOUND_CID>
1065

> <PUBCHEM_CONFORMER_RMSD>
0.8

> <PUBCHEM_CONFORMER_DIVERSEORDER>
6
28
30
26
14
24
15
11
23
17
8
10
13
29
19
22
31
16
20
2
4
7
9
5
25
12
27
21
18
3
1

> <PUBCHEM_MMFF94_PARTIAL_CHARGES>
29
1 -0.68
10 0.27
11 0.27
12 0.42
13 -0.29
14 -0.14
15 -0.3
17 -0.15
18 0.31
19 -0.15
2 -0.36
20 0.16
21 -0.15
22 0.08
23 -0.15
24 0.28
3 -0.81
37 0.15
38 0.4
39 0.15
4 -0.62
40 0.15
41 0.15
42 0.15
43 0.15
44 0.15
45 0.15
6 0.27
8 0.14

> <PUBCHEM_EFFECTIVE_ROTOR_COUNT>
5.2

> <PUBCHEM_PHARMACOPHORE_FEATURES>
9
1 1 acceptor
1 1 donor
1 15 hydrophobe
1 2 acceptor
1 3 cation
1 4 acceptor
6 16 18 19 21 22 23 rings
6 4 14 16 17 18 20 rings
8 3 5 6 7 8 9 10 11 rings

> <PUBCHEM_HEAVY_ATOM_COUNT>
24

> <PUBCHEM_ATOM_DEF_STEREO_COUNT>
0

> <PUBCHEM_ATOM_UDEF_STEREO_COUNT>
4

> <PUBCHEM_BOND_DEF_STEREO_COUNT>
0

> <PUBCHEM_BOND_UDEF_STEREO_COUNT>
0

> <PUBCHEM_ISOTOPIC_ATOM_COUNT>
0

> <PUBCHEM_COMPONENT_COUNT>
1

> <PUBCHEM_CACTVS_TAUTO_COUNT>
1

> <PUBCHEM_CONFORMER_ID>
0000042900000006

> <PUBCHEM_MMFF94_ENERGY>
87.6718

> <PUBCHEM_FEATURE_SELFOVERLAP>
45.702

> <PUBCHEM_SHAPE_FINGERPRINT>
10366900 7 18114476568985643786
10674148 151 17058957557701763584
11370993 70 18260823765829681867
11582403 64 15509621398732276126
11640471 11 17988629784085653892
12363563 72 15357707374659212895
12390115 104 18121785199650007668
12403814 3 18272084968785867377
12633257 1 17751635459966428992
12788726 201 17109046054469393252
128238 76 17986954240398641543
12892183 10 17894344479970831144
13004483 165 8502112737572854932
13224815 77 17489579022638647619
13583140 156 18191300486111662079
13828863 39 18200040679986975561
13944108 23 11452006674733352683
14178342 30 17024035848320824283
14223421 5 18261960630924765087
14289901 80 18340758239920825179
14341114 328 18131357431621747179
14787075 74 18126835217432321991
14955137 171 18194681467715127274
15475509 8 18130516224360513686
17349148 13 13984666945117447673
1813 80 17555455025262755990
20681677 76 18191016812048327349
20715895 44 17337305278218750105
20739085 24 18187361013770812292
21065199 12 18187646860380288017
21401589 2 18055909038234436712
21524375 3 18130217246537523110
21756936 100 18057042626327709568
21864079 5 17988082179787104609
23559900 14 18191583039030348371
2637199 183 17203618098489522684
283562 15 17399501812302409962
3459 83 8285662878687581803
3729539 64 11023291791973080421
38570 142 18199203939391905764
392239 28 18409731785325972771
469060 322 18045769350392183845
474 4 18340475729920065766
49207404 50 18334298651624622186
5081480 168 16699509450532347412
5104073 3 18187928331231161865
59755656 520 18269560601678294956
633830 44 18059861661949659188
7399639 24 18260550034726309465

> <PUBCHEM_SHAPE_MULTIPOLES>
472.21
10.1
3.03
1.7
2.69
0.08
-0.35
-4.27
5.89
-3.92
0.21
2.03
0.21
0.69

> <PUBCHEM_SHAPE_SELFOVERLAP>
1030.244

> <PUBCHEM_SHAPE_VOLUME>
252.2

> <PUBCHEM_COORDINATE_TYPE>
2
5
10

$$$$
