10947890
  -OEChem-03092322203D

 42 43  0     0  0  0  0  0  0999 V2000
    5.8658    1.7654   -0.2319 O   0  0  0  0  0  0  0  0  0  0  0  0
    4.1101   -2.6454    0.4008 O   0  0  0  0  0  0  0  0  0  0  0  0
    6.2743   -0.9643   -0.0011 O   0  0  0  0  0  0  0  0  0  0  0  0
   -1.4607    2.3010    0.5342 O   0  0  0  0  0  0  0  0  0  0  0  0
   -5.1931   -2.8269   -0.1413 O   0  0  0  0  0  0  0  0  0  0  0  0
   -3.2222   -2.2078   -1.0893 O   0  0  0  0  0  0  0  0  0  0  0  0
   -2.4130    0.2134    0.0169 N   0  0  0  0  0  0  0  0  0  0  0  0
    2.4531    0.5929    0.2536 C   0  0  0  0  0  0  0  0  0  0  0  0
    2.6374   -0.7750    0.3717 C   0  0  0  0  0  0  0  0  0  0  0  0
    3.5230    1.4500    0.0519 C   0  0  0  0  0  0  0  0  0  0  0  0
    4.8122    0.9247   -0.0339 C   0  0  0  0  0  0  0  0  0  0  0  0
    3.9266   -1.3004    0.2859 C   0  0  0  0  0  0  0  0  0  0  0  0
    5.0141   -0.4506    0.0830 C   0  0  0  0  0  0  0  0  0  0  0  0
   -3.7866    0.4723    0.0277 C   0  0  0  0  0  0  0  0  0  0  0  0
    1.0911    1.1481    0.3441 C   0  0  0  0  0  0  0  0  0  0  0  0
   -4.7104   -0.5381   -0.2401 C   0  0  0  0  0  0  0  0  0  0  0  0
   -0.0329    0.4412    0.1544 C   0  0  0  0  0  0  0  0  0  0  0  0
   -4.2289    1.7647    0.3102 C   0  0  0  0  0  0  0  0  0  0  0  0
   -1.3657    1.1102    0.2613 C   0  0  0  0  0  0  0  0  0  0  0  0
   -6.0763   -0.2558   -0.2252 C   0  0  0  0  0  0  0  0  0  0  0  0
   -5.5949    2.0468    0.3253 C   0  0  0  0  0  0  0  0  0  0  0  0
   -6.5185    1.0366    0.0575 C   0  0  0  0  0  0  0  0  0  0  0  0
   -4.2824   -1.8989   -0.5398 C   0  0  0  0  0  0  0  0  0  0  0  0
    6.2319    2.0388   -1.5829 C   0  0  0  0  0  0  0  0  0  0  0  0
    2.9459   -3.4430    0.6069 C   0  0  0  0  0  0  0  0  0  0  0  0
    1.7809   -1.4079    0.5603 H   0  0  0  0  0  0  0  0  0  0  0  0
    3.3742    2.5230   -0.0410 H   0  0  0  0  0  0  0  0  0  0  0  0
    1.0382    2.2093    0.5762 H   0  0  0  0  0  0  0  0  0  0  0  0
   -2.1520   -0.7465   -0.1926 H   0  0  0  0  0  0  0  0  0  0  0  0
   -0.0334   -0.6097   -0.1094 H   0  0  0  0  0  0  0  0  0  0  0  0
   -3.5849    2.6040    0.5277 H   0  0  0  0  0  0  0  0  0  0  0  0
   -6.8215   -1.0165   -0.4429 H   0  0  0  0  0  0  0  0  0  0  0  0
   -5.9408    3.0529    0.5444 H   0  0  0  0  0  0  0  0  0  0  0  0
   -7.5820    1.2574    0.0661 H   0  0  0  0  0  0  0  0  0  0  0  0
    6.2193   -1.9304    0.1013 H   0  0  0  0  0  0  0  0  0  0  0  0
    5.4073    2.5267   -2.1121 H   0  0  0  0  0  0  0  0  0  0  0  0
    6.5168    1.1169   -2.0996 H   0  0  0  0  0  0  0  0  0  0  0  0
    7.0911    2.7150   -1.5749 H   0  0  0  0  0  0  0  0  0  0  0  0
    2.2560   -3.3808   -0.2418 H   0  0  0  0  0  0  0  0  0  0  0  0
    2.4606   -3.2116    1.5613 H   0  0  0  0  0  0  0  0  0  0  0  0
    3.2777   -4.4849    0.6670 H   0  0  0  0  0  0  0  0  0  0  0  0
   -4.8978   -3.7398   -0.3460 H   0  0  0  0  0  0  0  0  0  0  0  0
  1 11  1  0  0  0  0
  1 24  1  0  0  0  0
  2 12  1  0  0  0  0
  2 25  1  0  0  0  0
  3 13  1  0  0  0  0
  3 35  1  0  0  0  0
  4 19  2  0  0  0  0
  5 23  1  0  0  0  0
  5 42  1  0  0  0  0
  6 23  2  0  0  0  0
  7 14  1  0  0  0  0
  7 19  1  0  0  0  0
  7 29  1  0  0  0  0
  8  9  2  0  0  0  0
  8 10  1  0  0  0  0
  8 15  1  0  0  0  0
  9 12  1  0  0  0  0
  9 26  1  0  0  0  0
 10 11  2  0  0  0  0
 10 27  1  0  0  0  0
 11 13  1  0  0  0  0
 12 13  2  0  0  0  0
 14 16  1  0  0  0  0
 14 18  2  0  0  0  0
 15 17  2  0  0  0  0
 15 28  1  0  0  0  0
 16 20  2  0  0  0  0
 16 23  1  0  0  0  0
 17 19  1  0  0  0  0
 17 30  1  0  0  0  0
 18 21  1  0  0  0  0
 18 31  1  0  0  0  0
 20 22  1  0  0  0  0
 20 32  1  0  0  0  0
 21 22  2  0  0  0  0
 21 33  1  0  0  0  0
 22 34  1  0  0  0  0
 24 36  1  0  0  0  0
 24 37  1  0  0  0  0
 24 38  1  0  0  0  0
 25 39  1  0  0  0  0
 25 40  1  0  0  0  0
 25 41  1  0  0  0  0
M  END
> <PUBCHEM_COMPOUND_CID>
10947890

> <PUBCHEM_CONFORMER_RMSD>
0.8

> <PUBCHEM_CONFORMER_DIVERSEORDER>
1
7
17
13
9
10
16
12
4
15
11
18
3
5
2
19
8
6
14

> <PUBCHEM_MMFF94_PARTIAL_CHARGES>
36
1 -0.36
10 -0.15
11 0.08
12 0.08
13 0.08
14 0.12
15 -0.18
16 0.09
17 -0.14
18 -0.15
19 0.62
2 -0.36
20 -0.15
21 -0.15
22 -0.15
23 0.63
24 0.28
25 0.28
26 0.15
27 0.15
28 0.15
29 0.37
3 -0.53
30 0.15
31 0.15
32 0.15
33 0.15
34 0.15
35 0.45
4 -0.57
42 0.5
5 -0.65
6 -0.57
7 -0.55
8 0.03
9 -0.15

> <PUBCHEM_EFFECTIVE_ROTOR_COUNT>
7

> <PUBCHEM_PHARMACOPHORE_FEATURES>
10
1 1 acceptor
1 2 acceptor
1 3 donor
1 4 acceptor
1 5 acceptor
1 6 acceptor
1 7 donor
3 5 6 23 anion
6 14 16 18 20 21 22 rings
6 8 9 10 11 12 13 rings

> <PUBCHEM_HEAVY_ATOM_COUNT>
25

> <PUBCHEM_ATOM_DEF_STEREO_COUNT>
0

> <PUBCHEM_ATOM_UDEF_STEREO_COUNT>
0

> <PUBCHEM_BOND_DEF_STEREO_COUNT>
1

> <PUBCHEM_BOND_UDEF_STEREO_COUNT>
0

> <PUBCHEM_ISOTOPIC_ATOM_COUNT>
0

> <PUBCHEM_COMPONENT_COUNT>
1

> <PUBCHEM_CACTVS_TAUTO_COUNT>
6

> <PUBCHEM_CONFORMER_ID>
00A70D3200000001

> <PUBCHEM_MMFF94_ENERGY>
99.8219

> <PUBCHEM_FEATURE_SELFOVERLAP>
50.805

> <PUBCHEM_SHAPE_FINGERPRINT>
10299344 5 18412547608998257657
10595046 47 18410012130531072761
11135609 149 16445009939706308050
11315181 36 17132113555117660249
11524674 6 16774076280813467173
117089 54 17831022695628712115
11719270 70 18409725150303068282
11756154 67 17548700682267908966
11796584 16 18131352985834691063
12107183 9 17691971462133637609
12236239 1 18408041814236631413
12788726 201 17632301116549964833
12821665 9 18190748728595445077
13167823 11 18412541020244105987
13533116 47 18340205194040565488
14251764 18 18202284706690453105
14528608 73 18408608089106624116
15183329 4 18410851041176533075
15196674 1 18412260636247266715
15250474 111 18340755005589392503
15537594 2 18201716288273142367
15799311 1 18339654368711242227
17844677 252 18413393137566693025
17857418 61 18341045237871901347
19427546 62 18188495787116634664
20511986 3 18410000035992708037
21033648 29 14261064321117156985
220451 1 18342182167487044049
22950370 63 18411980260771647377
23522609 53 18198933372815027944
23559900 14 18272078457468150393
239999 70 18201442446318395550
3004659 81 18409166572161870578
335352 9 18342453769362647917
338550 245 18409730672665783198
4073 2 18187369860643579107
4214541 1 18413669106695633649
4325135 7 18407761447720212004
5104073 3 18201997729190516209
559249 180 18341327817393555213
6025842 7 18335423440010400902
999808 66 18114474439779072579

> <PUBCHEM_SHAPE_MULTIPOLES>
474.29
18.84
3.1
0.82
2.13
2.29
-0.18
-1.94
-2.69
-0.77
-0.02
-0.45
-0.09
-2.32

> <PUBCHEM_SHAPE_SELFOVERLAP>
1015.221

> <PUBCHEM_SHAPE_VOLUME>
261.9

> <PUBCHEM_COORDINATE_TYPE>
2
5
10

$$$$
