11046840
  -OEChem-03102308173D

 51 53  0     0  0  0  0  0  0999 V2000
   -4.8241    0.2815    0.9878 O   0  0  0  0  0  0  0  0  0  0  0  0
   -1.3331    0.4027   -2.3615 O   0  0  0  0  0  0  0  0  0  0  0  0
   -0.9529   -2.3668    1.5208 O   0  0  0  0  0  0  0  0  0  0  0  0
    0.2834   -2.4545   -1.5947 O   0  0  0  0  0  0  0  0  0  0  0  0
    7.3967    1.4992    0.5673 O   0  0  0  0  0  0  0  0  0  0  0  0
   -5.4902    1.3981    0.3688 C   0  0  0  0  0  0  0  0  0  0  0  0
   -5.3410    1.3739   -1.1610 C   0  0  0  0  0  0  0  0  0  0  0  0
   -3.8767    1.3682   -1.5766 C   0  0  0  0  0  0  0  0  0  0  0  0
   -3.1094    0.3773   -0.7527 C   0  0  0  0  0  0  0  0  0  0  0  0
   -3.6149   -0.0940    0.4645 C   0  0  0  0  0  0  0  0  0  0  0  0
   -6.9769    1.2488    0.7236 C   0  0  0  0  0  0  0  0  0  0  0  0
   -4.9676    2.6997    0.9956 C   0  0  0  0  0  0  0  0  0  0  0  0
   -1.8521   -0.0642   -1.1871 C   0  0  0  0  0  0  0  0  0  0  0  0
   -2.8866   -1.0203    1.2165 C   0  0  0  0  0  0  0  0  0  0  0  0
   -1.1233   -0.9817   -0.4300 C   0  0  0  0  0  0  0  0  0  0  0  0
   -1.6421   -1.4621    0.7697 C   0  0  0  0  0  0  0  0  0  0  0  0
    0.1822   -1.4399   -0.8925 C   0  0  0  0  0  0  0  0  0  0  0  0
    1.4005   -0.6711   -0.4715 C   0  0  0  0  0  0  0  0  0  0  0  0
   -1.5642   -2.8009    2.7337 C   0  0  0  0  0  0  0  0  0  0  0  0
    2.6227   -1.0728   -0.8506 C   0  0  0  0  0  0  0  0  0  0  0  0
    3.8774   -0.3961   -0.4775 C   0  0  0  0  0  0  0  0  0  0  0  0
    3.8924    0.4504    0.6189 C   0  0  0  0  0  0  0  0  0  0  0  0
    5.0180   -0.6203   -1.2313 C   0  0  0  0  0  0  0  0  0  0  0  0
    5.0806    1.0903    0.9715 C   0  0  0  0  0  0  0  0  0  0  0  0
    6.2063    0.0196   -0.8788 C   0  0  0  0  0  0  0  0  0  0  0  0
    6.2376    0.8749    0.2226 C   0  0  0  0  0  0  0  0  0  0  0  0
    7.3575    2.3601    1.7046 C   0  0  0  0  0  0  0  0  0  0  0  0
   -5.8577    2.2226   -1.6247 H   0  0  0  0  0  0  0  0  0  0  0  0
   -5.8092    0.4597   -1.5521 H   0  0  0  0  0  0  0  0  0  0  0  0
   -3.4369    2.3634   -1.4444 H   0  0  0  0  0  0  0  0  0  0  0  0
   -3.8185    1.1162   -2.6419 H   0  0  0  0  0  0  0  0  0  0  0  0
   -7.3750    0.3007    0.3434 H   0  0  0  0  0  0  0  0  0  0  0  0
   -7.1201    1.2274    1.8102 H   0  0  0  0  0  0  0  0  0  0  0  0
   -7.5758    2.0673    0.3106 H   0  0  0  0  0  0  0  0  0  0  0  0
   -5.1313    2.6989    2.0797 H   0  0  0  0  0  0  0  0  0  0  0  0
   -3.8881    2.8178    0.8565 H   0  0  0  0  0  0  0  0  0  0  0  0
   -5.4676    3.5766    0.5715 H   0  0  0  0  0  0  0  0  0  0  0  0
   -3.3451   -1.3520    2.1424 H   0  0  0  0  0  0  0  0  0  0  0  0
   -0.4851   -0.0228   -2.5640 H   0  0  0  0  0  0  0  0  0  0  0  0
    1.2194    0.2097    0.1336 H   0  0  0  0  0  0  0  0  0  0  0  0
   -2.5000   -3.3383    2.5457 H   0  0  0  0  0  0  0  0  0  0  0  0
   -1.6896   -1.9748    3.4421 H   0  0  0  0  0  0  0  0  0  0  0  0
   -0.8784   -3.5156    3.2008 H   0  0  0  0  0  0  0  0  0  0  0  0
    2.7388   -1.9532   -1.4783 H   0  0  0  0  0  0  0  0  0  0  0  0
    3.0219    0.6297    1.2421 H   0  0  0  0  0  0  0  0  0  0  0  0
    5.0092   -1.2826   -2.0929 H   0  0  0  0  0  0  0  0  0  0  0  0
    5.0361    1.7375    1.8409 H   0  0  0  0  0  0  0  0  0  0  0  0
    7.1044   -0.1518   -1.4660 H   0  0  0  0  0  0  0  0  0  0  0  0
    8.3637    2.7724    1.8327 H   0  0  0  0  0  0  0  0  0  0  0  0
    7.1198    1.8072    2.6197 H   0  0  0  0  0  0  0  0  0  0  0  0
    6.6827    3.2079    1.5445 H   0  0  0  0  0  0  0  0  0  0  0  0
  1  6  1  0  0  0  0
  1 10  1  0  0  0  0
  2 13  1  0  0  0  0
  2 39  1  0  0  0  0
  3 16  1  0  0  0  0
  3 19  1  0  0  0  0
  4 17  2  0  0  0  0
  5 26  1  0  0  0  0
  5 27  1  0  0  0  0
  6  7  1  0  0  0  0
  6 11  1  0  0  0  0
  6 12  1  0  0  0  0
  7  8  1  0  0  0  0
  7 28  1  0  0  0  0
  7 29  1  0  0  0  0
  8  9  1  0  0  0  0
  8 30  1  0  0  0  0
  8 31  1  0  0  0  0
  9 10  1  0  0  0  0
  9 13  2  0  0  0  0
 10 14  2  0  0  0  0
 11 32  1  0  0  0  0
 11 33  1  0  0  0  0
 11 34  1  0  0  0  0
 12 35  1  0  0  0  0
 12 36  1  0  0  0  0
 12 37  1  0  0  0  0
 13 15  1  0  0  0  0
 14 16  1  0  0  0  0
 14 38  1  0  0  0  0
 15 16  2  0  0  0  0
 15 17  1  0  0  0  0
 17 18  1  0  0  0  0
 18 20  2  0  0  0  0
 18 40  1  0  0  0  0
 19 41  1  0  0  0  0
 19 42  1  0  0  0  0
 19 43  1  0  0  0  0
 20 21  1  0  0  0  0
 20 44  1  0  0  0  0
 21 22  2  0  0  0  0
 21 23  1  0  0  0  0
 22 24  1  0  0  0  0
 22 45  1  0  0  0  0
 23 25  2  0  0  0  0
 23 46  1  0  0  0  0
 24 26  2  0  0  0  0
 24 47  1  0  0  0  0
 25 26  1  0  0  0  0
 25 48  1  0  0  0  0
 27 49  1  0  0  0  0
 27 50  1  0  0  0  0
 27 51  1  0  0  0  0
M  END
> <PUBCHEM_COMPOUND_CID>
11046840

> <PUBCHEM_CONFORMER_RMSD>
0.8

> <PUBCHEM_CONFORMER_DIVERSEORDER>
7
28
8
4
12
9
21
14
25
6
13
2
23
26
22
10
11
18
19
1
24
20
3
17
16
5
27
15

> <PUBCHEM_MMFF94_PARTIAL_CHARGES>
32
1 -0.36
10 0.08
13 0.08
14 -0.15
15 0.09
16 0.08
17 0.47
18 -0.14
19 0.28
2 -0.53
20 -0.18
21 0.03
22 -0.15
23 -0.15
24 -0.15
25 -0.15
26 0.08
27 0.28
3 -0.36
38 0.15
39 0.45
4 -0.57
40 0.15
44 0.15
45 0.15
46 0.15
47 0.15
48 0.15
5 -0.36
6 0.28
8 0.14
9 -0.14

> <PUBCHEM_EFFECTIVE_ROTOR_COUNT>
5.8

> <PUBCHEM_PHARMACOPHORE_FEATURES>
9
1 1 acceptor
1 2 donor
1 3 acceptor
1 4 acceptor
1 5 acceptor
3 6 11 12 hydrophobe
6 1 6 7 8 9 10 rings
6 21 22 23 24 25 26 rings
6 9 10 13 14 15 16 rings

> <PUBCHEM_HEAVY_ATOM_COUNT>
27

> <PUBCHEM_ATOM_DEF_STEREO_COUNT>
0

> <PUBCHEM_ATOM_UDEF_STEREO_COUNT>
0

> <PUBCHEM_BOND_DEF_STEREO_COUNT>
1

> <PUBCHEM_BOND_UDEF_STEREO_COUNT>
0

> <PUBCHEM_ISOTOPIC_ATOM_COUNT>
0

> <PUBCHEM_COMPONENT_COUNT>
1

> <PUBCHEM_CACTVS_TAUTO_COUNT>
5

> <PUBCHEM_CONFORMER_ID>
00A88FB800000007

> <PUBCHEM_MMFF94_ENERGY>
109.5667

> <PUBCHEM_FEATURE_SELFOVERLAP>
45.701

> <PUBCHEM_SHAPE_FINGERPRINT>
10 15 17240208737597969804
10074138 170 17458915945569456339
10319926 262 17895201030100197866
10554248 39 17203336602940173196
10670039 82 13470699139665668232
10692045 39 17970339330975497938
12035758 1 17967543363237168965
12236239 1 16630526202558487039
12403259 118 18262242252178478942
12422481 6 16009307583310738923
12596602 18 14996289097604921612
12633257 1 17603592949384053310
12838862 33 17676203551755259293
12895837 130 18059852921596779348
13140716 1 17170147883126069509
13402501 40 18343302552603449336
13668630 136 8142084260543705780
13690498 29 15840684414686178357
13911987 19 15482673472731582095
14020679 6 18113338643344666984
14251764 30 11025798699810812532
14556957 393 14836133168861560816
15064981 194 16414637227498978153
15082195 135 14908180876749714792
15183329 4 15123791777587040820
15326921 28 16951663832122033421
15575132 122 17203331044656841081
16110190 28 17603870056870011388
16988056 13 12592580564522125986
16994733 274 18059573534659814769
17980427 23 18040724705192439063
1813 80 13118289122649563646
18643901 69 10087648117008661153
19377110 9 15502376768688840380
19438510 23 18411698781594688266
19784866 240 10809351031263512247
20028762 73 12468354644503365856
2026 5 11097866202951314129
20554085 129 17895178975485181389
20642791 239 16343694448326847147
21033648 29 18411698825024363030
21267235 1 12822999921472140429
21298829 104 17846781806129997928
21304303 64 17988929959609019265
21307412 95 10951756483491604245
21401589 2 18335417950467281227
21424621 283 18338241453499342497
22122407 14 18059862800364549248
22224240 67 18041002817668249995
2748736 6 18131626794928099584
2838139 119 18059293158424416053
2916195 48 18409732816344690757
3004659 81 14261343648494252354
474113 269 13912608299266258761
5104073 3 17096360631641396241
5364581 5 17825671320690172220
54039377 194 13262668211623733592
56616090 284 12967123909039336423
5718773 13 10953724605168513984
59682541 35 18336276691335878977
6608658 132 15482685567174923842
7970288 3 11746933187997662080
999808 66 12396291552764334984

> <PUBCHEM_SHAPE_MULTIPOLES>
526.3
18.87
2.5
1.94
20.56
0.39
-0.32
-16.8
-4.67
-0.86
-1.4
-0.44
0.62
2.56

> <PUBCHEM_SHAPE_SELFOVERLAP>
1135.097

> <PUBCHEM_SHAPE_VOLUME>
290.6

> <PUBCHEM_COORDINATE_TYPE>
2
5
10

$$$$
