111141
  -OEChem-03112307503D

 40 42  0     1  0  0  0  0  0999 V2000
    1.9104    0.7053   -0.6355 O   0  0  0  0  0  0  0  0  0  0  0  0
    0.2056   -0.8732   -0.8495 O   0  0  0  0  0  0  0  0  0  0  0  0
    4.6805   -2.2089    0.2018 O   0  0  0  0  0  0  0  0  0  0  0  0
    5.2652    0.5523    0.8260 O   0  0  0  0  0  0  0  0  0  0  0  0
    1.8043   -2.7548    0.5334 O   0  0  0  0  0  0  0  0  0  0  0  0
    2.3906    3.4022   -0.4071 O   0  0  0  0  0  0  0  0  0  0  0  0
    3.6815   -1.2386    0.5194 C   0  0  1  0  0  0  0  0  0  0  0  0
    4.1694    0.1224    0.0225 C   0  0  1  0  0  0  0  0  0  0  0  0
    2.3620   -1.6300   -0.1458 C   0  0  2  0  0  0  0  0  0  0  0  0
    3.0484    1.1618    0.0978 C   0  0  1  0  0  0  0  0  0  0  0  0
    1.3496   -0.4860   -0.0889 C   0  0  1  0  0  0  0  0  0  0  0  0
    3.4760    2.4979   -0.5014 C   0  0  0  0  0  0  0  0  0  0  0  0
   -0.9967   -0.3541   -0.4542 C   0  0  0  0  0  0  0  0  0  0  0  0
   -2.1650   -1.0807   -0.6648 C   0  0  0  0  0  0  0  0  0  0  0  0
   -1.0424    0.8942    0.1520 C   0  0  0  0  0  0  0  0  0  0  0  0
   -3.4076   -0.5613   -0.2667 C   0  0  0  0  0  0  0  0  0  0  0  0
   -3.4600    0.7107    0.3518 C   0  0  0  0  0  0  0  0  0  0  0  0
   -2.2682    1.4255    0.5539 C   0  0  0  0  0  0  0  0  0  0  0  0
   -4.5994   -1.2762   -0.4688 C   0  0  0  0  0  0  0  0  0  0  0  0
   -4.7025    1.2301    0.7499 C   0  0  0  0  0  0  0  0  0  0  0  0
   -5.8251   -0.7448   -0.0670 C   0  0  0  0  0  0  0  0  0  0  0  0
   -5.8766    0.5059    0.5412 C   0  0  0  0  0  0  0  0  0  0  0  0
    3.5799   -1.2451    1.6117 H   0  0  0  0  0  0  0  0  0  0  0  0
    4.5360    0.0246   -1.0067 H   0  0  0  0  0  0  0  0  0  0  0  0
    2.5369   -1.9405   -1.1828 H   0  0  0  0  0  0  0  0  0  0  0  0
    2.7441    1.3393    1.1384 H   0  0  0  0  0  0  0  0  0  0  0  0
    1.0720   -0.3276    0.9642 H   0  0  0  0  0  0  0  0  0  0  0  0
    3.7362    2.3975   -1.5603 H   0  0  0  0  0  0  0  0  0  0  0  0
    4.3289    2.9266    0.0323 H   0  0  0  0  0  0  0  0  0  0  0  0
    5.5078   -1.9248    0.6270 H   0  0  0  0  0  0  0  0  0  0  0  0
    4.9476    0.6491    1.7401 H   0  0  0  0  0  0  0  0  0  0  0  0
    1.6461   -2.5012    1.4587 H   0  0  0  0  0  0  0  0  0  0  0  0
    1.6390    3.0107   -0.8841 H   0  0  0  0  0  0  0  0  0  0  0  0
   -2.1059   -2.0571   -1.1420 H   0  0  0  0  0  0  0  0  0  0  0  0
   -0.1664    1.5100    0.3196 H   0  0  0  0  0  0  0  0  0  0  0  0
   -2.2861    2.4071    1.0232 H   0  0  0  0  0  0  0  0  0  0  0  0
   -4.5830   -2.2556   -0.9422 H   0  0  0  0  0  0  0  0  0  0  0  0
   -4.7666    2.2058    1.2272 H   0  0  0  0  0  0  0  0  0  0  0  0
   -6.7396   -1.3080   -0.2291 H   0  0  0  0  0  0  0  0  0  0  0  0
   -6.8312    0.9190    0.8538 H   0  0  0  0  0  0  0  0  0  0  0  0
  1 10  1  0  0  0  0
  1 11  1  0  0  0  0
  2 11  1  0  0  0  0
  2 13  1  0  0  0  0
  3  7  1  0  0  0  0
  3 30  1  0  0  0  0
  4  8  1  0  0  0  0
  4 31  1  0  0  0  0
  5  9  1  0  0  0  0
  5 32  1  0  0  0  0
  6 12  1  0  0  0  0
  6 33  1  0  0  0  0
  7  8  1  0  0  0  0
  7  9  1  0  0  0  0
  7 23  1  0  0  0  0
  8 10  1  0  0  0  0
  8 24  1  0  0  0  0
  9 11  1  0  0  0  0
  9 25  1  0  0  0  0
 10 12  1  0  0  0  0
 10 26  1  0  0  0  0
 11 27  1  0  0  0  0
 12 28  1  0  0  0  0
 12 29  1  0  0  0  0
 13 14  2  0  0  0  0
 13 15  1  0  0  0  0
 14 16  1  0  0  0  0
 14 34  1  0  0  0  0
 15 18  2  0  0  0  0
 15 35  1  0  0  0  0
 16 17  1  0  0  0  0
 16 19  2  0  0  0  0
 17 18  1  0  0  0  0
 17 20  2  0  0  0  0
 18 36  1  0  0  0  0
 19 21  1  0  0  0  0
 19 37  1  0  0  0  0
 20 22  1  0  0  0  0
 20 38  1  0  0  0  0
 21 22  2  0  0  0  0
 21 39  1  0  0  0  0
 22 40  1  0  0  0  0
M  END
> <PUBCHEM_COMPOUND_CID>
111141

> <PUBCHEM_CONFORMER_RMSD>
0.8

> <PUBCHEM_CONFORMER_DIVERSEORDER>
4
57
75
49
10
64
32
59
7
67
52
5
47
69
1
65
55
41
74
9
76
46
26
13
20
62
63
72
3
53
6
22
17
30
68
28
39
14
51
78
38
35
42
44
71
45
34
43
37
70
8
15
31
16
19
12
48
33
11
24
56
58
27
2
40
23
36
54
61
66
73
60
29
21
25
50
77
18

> <PUBCHEM_MMFF94_PARTIAL_CHARGES>
31
1 -0.56
10 0.28
11 0.56
12 0.28
13 0.08
14 -0.15
15 -0.15
18 -0.15
19 -0.15
2 -0.36
20 -0.15
21 -0.15
22 -0.15
3 -0.68
30 0.4
31 0.4
32 0.4
33 0.4
34 0.15
35 0.15
36 0.15
37 0.15
38 0.15
39 0.15
4 -0.68
40 0.15
5 -0.68
6 -0.68
7 0.28
8 0.28
9 0.28

> <PUBCHEM_EFFECTIVE_ROTOR_COUNT>
4.2

> <PUBCHEM_PHARMACOPHORE_FEATURES>
13
1 1 acceptor
1 2 acceptor
1 3 acceptor
1 3 donor
1 4 acceptor
1 4 donor
1 5 acceptor
1 5 donor
1 6 acceptor
1 6 donor
6 1 7 8 9 10 11 rings
6 13 14 15 16 17 18 rings
6 16 17 19 20 21 22 rings

> <PUBCHEM_HEAVY_ATOM_COUNT>
22

> <PUBCHEM_ATOM_DEF_STEREO_COUNT>
5

> <PUBCHEM_ATOM_UDEF_STEREO_COUNT>
0

> <PUBCHEM_BOND_DEF_STEREO_COUNT>
0

> <PUBCHEM_BOND_UDEF_STEREO_COUNT>
0

> <PUBCHEM_ISOTOPIC_ATOM_COUNT>
0

> <PUBCHEM_COMPONENT_COUNT>
1

> <PUBCHEM_CACTVS_TAUTO_COUNT>
1

> <PUBCHEM_CONFORMER_ID>
0001B22500000004

> <PUBCHEM_MMFF94_ENERGY>
72.5359

> <PUBCHEM_FEATURE_SELFOVERLAP>
66.06

> <PUBCHEM_SHAPE_FINGERPRINT>
10354089 29 18411138039407307248
10366900 7 17749681705144839626
10595046 47 18341050821767229333
10688039 33 17822007571588948332
10937287 8 17250348661458143852
11045977 3 18040443199997813491
11724838 91 18272364308451604111
12107183 9 17692254032627507187
12166972 35 18201722834262185576
12236239 1 18273494571992432814
12403259 118 18342452608829934313
12616971 3 18342457045673277135
12633257 1 17967802882224680560
12788726 201 17489039184178897873
13167823 11 18412262831207605039
13533116 47 18333732411874101091
14251764 18 18410288108788297794
14341114 176 18341334413740875842
14341114 328 18343301461728904107
14528608 73 18340491170063946021
14739800 52 17774149240678057864
14849402 71 18337390565087074080
15196674 1 18342458127793993427
17492 89 18269838618890561687
17834072 33 18411981373400123151
17844677 252 18410580548436687249
1813 80 17313108518518556708
18681886 176 18202280325475593114
19050596 39 18412263926250042823
200 152 18412822482620744871
20511986 3 18272072891210957709
20715895 44 17981890744634899985
21033648 29 17095790092860545541
21065198 48 18341613676899002443
21267235 1 18340775857523362430
23402539 116 18201994413955960487
23559900 14 18410853261236996115
239999 70 18343310249279666206
245318 6 17391365373815901924
26918003 58 18113057147151361515
3004659 81 18271812306512199508
34797466 226 15410615947402821465
350125 39 18411982446857273004
351380 180 18409167705727314049
3545911 37 18343021086258254046
3680242 22 18270973362139848161
4073 2 18041285468749010851
4214541 1 18339924814560050849
4340502 62 17967819370820751915
474 4 18335421313405698368
5104073 3 18342181072576137923
5283173 99 18115858617275754253
5312544 6 18265899231646528933
67856867 119 18340766039280903785
8272917 22 18410859862902384470
9709674 26 18411144614781412415
9981440 41 17617372227131410544

> <PUBCHEM_SHAPE_MULTIPOLES>
417.53
12.93
2.52
0.81
6.67
0.77
-0.01
-0.1
-1.97
-3.06
0.09
0.05
0.02
-1.27

> <PUBCHEM_SHAPE_SELFOVERLAP>
900.995

> <PUBCHEM_SHAPE_VOLUME>
227.4

> <PUBCHEM_COORDINATE_TYPE>
2
5
10

$$$$
