11723200
  -OEChem-03092322173D

 36 37  0     0  0  0  0  0  0999 V2000
    6.9196   -1.1324    0.0124 O   0  0  0  0  0  0  0  0  0  0  0  0
   -6.7899   -1.4001   -0.6457 O   0  0  0  0  0  0  0  0  0  0  0  0
   -7.1817    1.2634    0.0461 O   0  0  0  0  0  0  0  0  0  0  0  0
    0.5339   -2.1332    0.1639 O   0  0  0  0  0  0  0  0  0  0  0  0
    4.2693    2.9388   -0.7934 O   0  0  0  0  0  0  0  0  0  0  0  0
    2.3495    2.6285    0.3832 O   0  0  0  0  0  0  0  0  0  0  0  0
    1.4896    0.0074    0.0312 N   0  0  0  0  0  0  0  0  0  0  0  0
    2.8797   -0.2654    0.0248 C   0  0  0  0  0  0  0  0  0  0  0  0
    3.7957    0.7714   -0.0451 C   0  0  0  0  0  0  0  0  0  0  0  0
    3.2901   -1.5873    0.0905 C   0  0  0  0  0  0  0  0  0  0  0  0
   -3.3640   -0.3674    0.1021 C   0  0  0  0  0  0  0  0  0  0  0  0
    5.1595    0.4788   -0.0495 C   0  0  0  0  0  0  0  0  0  0  0  0
    5.5887   -0.8467    0.0162 C   0  0  0  0  0  0  0  0  0  0  0  0
    4.6540   -1.8797    0.0863 C   0  0  0  0  0  0  0  0  0  0  0  0
   -2.0249   -0.9345    0.1230 C   0  0  0  0  0  0  0  0  0  0  0  0
   -4.4515   -1.1600   -0.2651 C   0  0  0  0  0  0  0  0  0  0  0  0
    0.4510   -0.9124    0.0973 C   0  0  0  0  0  0  0  0  0  0  0  0
   -3.5609    0.9693    0.4489 C   0  0  0  0  0  0  0  0  0  0  0  0
   -0.8757   -0.2231    0.0800 C   0  0  0  0  0  0  0  0  0  0  0  0
   -5.7357   -0.6160   -0.2854 C   0  0  0  0  0  0  0  0  0  0  0  0
   -5.9324    0.7205    0.0616 C   0  0  0  0  0  0  0  0  0  0  0  0
   -4.8449    1.5133    0.4286 C   0  0  0  0  0  0  0  0  0  0  0  0
    3.3808    2.1670   -0.1117 C   0  0  0  0  0  0  0  0  0  0  0  0
    2.6392   -2.4460    0.1467 H   0  0  0  0  0  0  0  0  0  0  0  0
    1.2400    0.9915   -0.0215 H   0  0  0  0  0  0  0  0  0  0  0  0
    5.9092    1.2654   -0.0894 H   0  0  0  0  0  0  0  0  0  0  0  0
    4.9772   -2.9162    0.1378 H   0  0  0  0  0  0  0  0  0  0  0  0
   -1.9794   -2.0205    0.1667 H   0  0  0  0  0  0  0  0  0  0  0  0
   -4.3108   -2.2034   -0.5393 H   0  0  0  0  0  0  0  0  0  0  0  0
   -2.7485    1.6188    0.7612 H   0  0  0  0  0  0  0  0  0  0  0  0
   -0.8697    0.8588    0.0088 H   0  0  0  0  0  0  0  0  0  0  0  0
   -4.9853    2.5548    0.7055 H   0  0  0  0  0  0  0  0  0  0  0  0
    7.0350   -2.0968    0.0632 H   0  0  0  0  0  0  0  0  0  0  0  0
   -7.5996   -0.8621   -0.6040 H   0  0  0  0  0  0  0  0  0  0  0  0
   -7.1250    2.1967    0.3140 H   0  0  0  0  0  0  0  0  0  0  0  0
    3.9836    3.8764   -0.8331 H   0  0  0  0  0  0  0  0  0  0  0  0
  1 13  1  0  0  0  0
  1 33  1  0  0  0  0
  2 20  1  0  0  0  0
  2 34  1  0  0  0  0
  3 21  1  0  0  0  0
  3 35  1  0  0  0  0
  4 17  2  0  0  0  0
  5 23  1  0  0  0  0
  5 36  1  0  0  0  0
  6 23  2  0  0  0  0
  7  8  1  0  0  0  0
  7 17  1  0  0  0  0
  7 25  1  0  0  0  0
  8  9  2  0  0  0  0
  8 10  1  0  0  0  0
  9 12  1  0  0  0  0
  9 23  1  0  0  0  0
 10 14  2  0  0  0  0
 10 24  1  0  0  0  0
 11 15  1  0  0  0  0
 11 16  2  0  0  0  0
 11 18  1  0  0  0  0
 12 13  2  0  0  0  0
 12 26  1  0  0  0  0
 13 14  1  0  0  0  0
 14 27  1  0  0  0  0
 15 19  2  0  0  0  0
 15 28  1  0  0  0  0
 16 20  1  0  0  0  0
 16 29  1  0  0  0  0
 17 19  1  0  0  0  0
 18 22  2  0  0  0  0
 18 30  1  0  0  0  0
 19 31  1  0  0  0  0
 20 21  2  0  0  0  0
 21 22  1  0  0  0  0
 22 32  1  0  0  0  0
M  END
> <PUBCHEM_COMPOUND_CID>
11723200

> <PUBCHEM_CONFORMER_RMSD>
0.8

> <PUBCHEM_CONFORMER_DIVERSEORDER>
1
9
8
2
4
7
6
10
13
5
11
3
12

> <PUBCHEM_MMFF94_PARTIAL_CHARGES>
36
1 -0.53
10 -0.15
11 0.03
12 -0.15
13 0.08
14 -0.15
15 -0.18
16 -0.15
17 0.62
18 -0.15
19 -0.14
2 -0.53
20 0.08
21 0.08
22 -0.15
23 0.63
24 0.15
25 0.37
26 0.15
27 0.15
28 0.15
29 0.15
3 -0.53
30 0.15
31 0.15
32 0.15
33 0.45
34 0.45
35 0.45
36 0.5
4 -0.57
5 -0.65
6 -0.57
7 -0.55
8 0.12
9 0.09

> <PUBCHEM_EFFECTIVE_ROTOR_COUNT>
5

> <PUBCHEM_PHARMACOPHORE_FEATURES>
10
1 1 donor
1 2 donor
1 3 donor
1 4 acceptor
1 5 acceptor
1 6 acceptor
1 7 donor
3 5 6 23 anion
6 11 16 18 20 21 22 rings
6 8 9 10 12 13 14 rings

> <PUBCHEM_HEAVY_ATOM_COUNT>
23

> <PUBCHEM_ATOM_DEF_STEREO_COUNT>
0

> <PUBCHEM_ATOM_UDEF_STEREO_COUNT>
0

> <PUBCHEM_BOND_DEF_STEREO_COUNT>
1

> <PUBCHEM_BOND_UDEF_STEREO_COUNT>
0

> <PUBCHEM_ISOTOPIC_ATOM_COUNT>
0

> <PUBCHEM_COMPONENT_COUNT>
1

> <PUBCHEM_CACTVS_TAUTO_COUNT>
66

> <PUBCHEM_CONFORMER_ID>
00B2E1C000000001

> <PUBCHEM_MMFF94_ENERGY>
72.5015

> <PUBCHEM_FEATURE_SELFOVERLAP>
50.809

> <PUBCHEM_SHAPE_FINGERPRINT>
10411042 1 17976820888224767210
10595046 47 18341331175757423799
10763959 59 17749103387682792045
11045977 3 18041003968023452363
11089746 13 18333450932528479179
11315181 36 17918275346924185499
12107183 9 17619632384745257779
12166972 35 18411139151398363321
12236239 1 18201999928050428967
12403259 415 17749380464728685101
12616971 3 18130781287238545063
13167372 99 18413109433396109849
13785724 45 17908143175239193394
14170010 4 18410571808552630480
14251764 18 18334574646882419946
14464042 87 17989211412762681912
14528608 73 18411419535758699159
14933364 13 18408044013750042587
15183329 4 18411421691478957880
15196674 1 18411138056497836969
15537594 2 11169918302802046704
15849732 13 17846778495289870206
17834072 33 18342174483996162799
17844677 252 18411144636434869433
18335252 114 18339916035552141037
18681886 176 18201431485060852250
20028762 73 18272652312132396542
20157964 124 18410857685248405186
20612939 158 18408889559492851352
21033648 29 16877929551744660055
21315763 129 18411700972001693301
21315763 28 18411417319803832023
21315764 268 18335415790088844733
21623969 137 10303808821785503253
21709351 56 18412256221031150503
221357 26 18408038494532749868
23536379 177 18341612594646618515
23559900 14 18342733018443739771
29717793 49 18059860554032875406
3004659 81 18411698777363037128
335352 9 18409451393398406190
34797466 226 17346325950495020629
350125 39 18408041793131066708
351380 180 18410856563971738713
4073 2 18041003989493352066
4214541 1 18411982459952937571
4325135 7 18272649048305105855
5104073 3 18187365471150001691
54446538 1 18412262839544124181
59755656 520 17894346687948525259
67856867 119 18343017826140901065
7495541 125 17417807396102822243

> <PUBCHEM_SHAPE_MULTIPOLES>
433.13
19.02
2.37
0.66
13.73
1.3
0.01
0.06
1.27
-2.33
0.14
0.1
0.06
-0.96

> <PUBCHEM_SHAPE_SELFOVERLAP>
937.542

> <PUBCHEM_SHAPE_VOLUME>
235.1

> <PUBCHEM_COORDINATE_TYPE>
2
5
10

$$$$
