11937742
  -OEChem-03112306513D

 28 29  0     1  0  0  0  0  0999 V2000
    0.6833   -2.3181    0.0029 O   0  0  0  0  0  0  0  0  0  0  0  0
   -0.8796    2.7249    0.4653 O   0  0  0  0  0  0  0  0  0  0  0  0
    2.8292   -0.6110    1.1619 O   0  0  0  0  0  0  0  0  0  0  0  0
   -1.0056   -0.7345   -0.0600 N   0  0  0  0  0  0  0  0  0  0  0  0
    0.8050    1.1752    0.1584 N   0  0  0  0  0  0  0  0  0  0  0  0
   -1.4406    0.5825   -0.5041 C   0  0  1  0  0  0  0  0  0  0  0  0
   -2.8915    0.6618   -0.0451 C   0  0  0  0  0  0  0  0  0  0  0  0
   -2.1239   -1.5727    0.3338 C   0  0  0  0  0  0  0  0  0  0  0  0
   -3.3505   -0.7930   -0.1189 C   0  0  0  0  0  0  0  0  0  0  0  0
    1.2489   -0.0228   -0.5490 C   0  0  2  0  0  0  0  0  0  0  0  0
    0.3118   -1.1559   -0.1386 C   0  0  0  0  0  0  0  0  0  0  0  0
   -0.5166    1.6011    0.1293 C   0  0  0  0  0  0  0  0  0  0  0  0
    2.7009   -0.3418   -0.2312 C   0  0  1  0  0  0  0  0  0  0  0  0
    3.6292    0.8044   -0.6045 C   0  0  0  0  0  0  0  0  0  0  0  0
   -1.3533    0.6295   -1.5957 H   0  0  0  0  0  0  0  0  0  0  0  0
   -3.4925    1.3236   -0.6758 H   0  0  0  0  0  0  0  0  0  0  0  0
   -2.9649    1.0232    0.9882 H   0  0  0  0  0  0  0  0  0  0  0  0
   -2.0916   -1.6771    1.4235 H   0  0  0  0  0  0  0  0  0  0  0  0
   -2.0486   -2.5647   -0.1206 H   0  0  0  0  0  0  0  0  0  0  0  0
   -4.2304   -0.9957    0.4977 H   0  0  0  0  0  0  0  0  0  0  0  0
   -3.5935   -1.0492   -1.1573 H   0  0  0  0  0  0  0  0  0  0  0  0
    1.1199    0.1549   -1.6238 H   0  0  0  0  0  0  0  0  0  0  0  0
    1.4892    1.8326    0.5177 H   0  0  0  0  0  0  0  0  0  0  0  0
    3.0122   -1.2457   -0.7667 H   0  0  0  0  0  0  0  0  0  0  0  0
    3.5018    1.6801    0.0392 H   0  0  0  0  0  0  0  0  0  0  0  0
    4.6710    0.4904   -0.4708 H   0  0  0  0  0  0  0  0  0  0  0  0
    3.4973    1.1037   -1.6487 H   0  0  0  0  0  0  0  0  0  0  0  0
    2.5411    0.1803    1.6481 H   0  0  0  0  0  0  0  0  0  0  0  0
  1 11  2  0  0  0  0
  2 12  2  0  0  0  0
  3 13  1  0  0  0  0
  3 28  1  0  0  0  0
  4  6  1  0  0  0  0
  4  8  1  0  0  0  0
  4 11  1  0  0  0  0
  5 10  1  0  0  0  0
  5 12  1  0  0  0  0
  5 23  1  0  0  0  0
  6  7  1  0  0  0  0
  6 12  1  0  0  0  0
  6 15  1  0  0  0  0
  7  9  1  0  0  0  0
  7 16  1  0  0  0  0
  7 17  1  0  0  0  0
  8  9  1  0  0  0  0
  8 18  1  0  0  0  0
  8 19  1  0  0  0  0
  9 20  1  0  0  0  0
  9 21  1  0  0  0  0
 10 11  1  0  0  0  0
 10 13  1  0  0  0  0
 10 22  1  0  0  0  0
 13 14  1  0  0  0  0
 13 24  1  0  0  0  0
 14 25  1  0  0  0  0
 14 26  1  0  0  0  0
 14 27  1  0  0  0  0
M  END
> <PUBCHEM_COMPOUND_CID>
11937742

> <PUBCHEM_CONFORMER_RMSD>
0.6

> <PUBCHEM_CONFORMER_DIVERSEORDER>
1
2
3

> <PUBCHEM_MMFF94_PARTIAL_CHARGES>
13
1 -0.57
10 0.36
11 0.57
12 0.57
13 0.28
2 -0.57
23 0.37
28 0.4
3 -0.68
4 -0.66
5 -0.73
6 0.36
8 0.3

> <PUBCHEM_EFFECTIVE_ROTOR_COUNT>
2

> <PUBCHEM_PHARMACOPHORE_FEATURES>
7
1 1 acceptor
1 2 acceptor
1 3 acceptor
1 3 donor
1 5 donor
5 4 6 7 8 9 rings
6 4 5 6 10 11 12 rings

> <PUBCHEM_HEAVY_ATOM_COUNT>
14

> <PUBCHEM_ATOM_DEF_STEREO_COUNT>
3

> <PUBCHEM_ATOM_UDEF_STEREO_COUNT>
0

> <PUBCHEM_BOND_DEF_STEREO_COUNT>
0

> <PUBCHEM_BOND_UDEF_STEREO_COUNT>
0

> <PUBCHEM_ISOTOPIC_ATOM_COUNT>
0

> <PUBCHEM_COMPONENT_COUNT>
1

> <PUBCHEM_CACTVS_TAUTO_COUNT>
2

> <PUBCHEM_CONFORMER_ID>
00B627CE00000001

> <PUBCHEM_MMFF94_ENERGY>
41.2982

> <PUBCHEM_FEATURE_SELFOVERLAP>
35.622

> <PUBCHEM_SHAPE_FINGERPRINT>
108231 29 18268435804997733673
10967382 1 18411139181409841031
11132069 177 18412259536540161362
12032990 46 18340496650294567951
12382932 28 18412549777872209875
13380535 21 17983872080970728205
14325111 11 18408042913874509062
14614273 12 18188768336375974525
15775835 57 18113340820950724668
16945 1 18339362963685649733
17846911 113 18411693283719946640
193761 8 17979077076523552103
20201158 50 18408884036175438767
20510252 161 18343305859754303368
20588541 1 18408045117467220295
20645476 183 17749966577536016878
21061003 4 18270972344227155129
21501502 16 18124597483314472042
22802520 49 17914636976573885574
2334 1 18195526132471980557
23402539 116 18342452673354365542
23402655 69 18268414764897553957
23419403 2 15686949697445641263
23463225 33 18261388919185481314
23552423 10 18119251657796153382
23559900 14 18342178869606080676
2748010 2 18267859678190370517
3312278 4 18335707151910841707
353137 74 18336547114317393981
528886 8 18412543227825576227
537710 114 18335989760706392077
53812653 166 18341894086887263057
53812653 8 18409735040958408532
81228 2 18269004098028082513

> <PUBCHEM_SHAPE_MULTIPOLES>
260.54
5.04
2.11
0.76
1.5
0.49
0.05
-0.34
-0.23
-0.55
0.31
0.27
0
-0.19

> <PUBCHEM_SHAPE_SELFOVERLAP>
543.682

> <PUBCHEM_SHAPE_VOLUME>
147.9

> <PUBCHEM_COORDINATE_TYPE>
2
5
10

$$$$
