119404
  -OEChem-03112306523D

 35 37  0     1  0  0  0  0  0999 V2000
   -1.6519    2.5266   -0.4919 O   0  0  0  0  0  0  0  0  0  0  0  0
   -1.8984   -2.7674   -0.4566 O   0  0  0  0  0  0  0  0  0  0  0  0
    5.7803   -0.8330    0.8513 O   0  0  0  0  0  0  0  0  0  0  0  0
   -2.7683    0.5807    0.0840 N   0  0  0  0  0  0  0  0  0  0  0  0
   -0.6677   -0.8258   -0.6791 N   0  0  0  0  0  0  0  0  0  0  0  0
   -2.6904   -0.7633    0.6391 C   0  0  1  0  0  0  0  0  0  0  0  0
   -4.1378   -1.2399    0.6461 C   0  0  0  0  0  0  0  0  0  0  0  0
   -4.1321    1.0780    0.0517 C   0  0  0  0  0  0  0  0  0  0  0  0
   -4.9200    0.0548    0.8577 C   0  0  0  0  0  0  0  0  0  0  0  0
   -0.3660    0.4978   -0.1408 C   0  0  2  0  0  0  0  0  0  0  0  0
   -1.6458    1.3236   -0.2441 C   0  0  0  0  0  0  0  0  0  0  0  0
   -1.7611   -1.5654   -0.2472 C   0  0  0  0  0  0  0  0  0  0  0  0
    0.7900    1.1437   -0.8876 C   0  0  0  0  0  0  0  0  0  0  0  0
    2.1226    0.6163   -0.4232 C   0  0  0  0  0  0  0  0  0  0  0  0
    2.7796    1.2472    0.6233 C   0  0  0  0  0  0  0  0  0  0  0  0
    2.6720   -0.4932   -1.0489 C   0  0  0  0  0  0  0  0  0  0  0  0
    4.0132    0.7582    1.0531 C   0  0  0  0  0  0  0  0  0  0  0  0
    3.9056   -0.9824   -0.6190 C   0  0  0  0  0  0  0  0  0  0  0  0
    4.5763   -0.3566    0.4320 C   0  0  0  0  0  0  0  0  0  0  0  0
   -2.2756   -0.6996    1.6517 H   0  0  0  0  0  0  0  0  0  0  0  0
   -4.3296   -1.9785    1.4301 H   0  0  0  0  0  0  0  0  0  0  0  0
   -4.4154   -1.6895   -0.3153 H   0  0  0  0  0  0  0  0  0  0  0  0
   -4.4519    1.0997   -0.9955 H   0  0  0  0  0  0  0  0  0  0  0  0
   -4.1895    2.0902    0.4618 H   0  0  0  0  0  0  0  0  0  0  0  0
   -5.9636   -0.0194    0.5400 H   0  0  0  0  0  0  0  0  0  0  0  0
   -4.9039    0.3241    1.9207 H   0  0  0  0  0  0  0  0  0  0  0  0
   -0.1393    0.3822    0.9272 H   0  0  0  0  0  0  0  0  0  0  0  0
    0.0334   -1.3111   -1.2292 H   0  0  0  0  0  0  0  0  0  0  0  0
    0.7919    2.2321   -0.7427 H   0  0  0  0  0  0  0  0  0  0  0  0
    0.6880    1.0012   -1.9720 H   0  0  0  0  0  0  0  0  0  0  0  0
    2.3484    2.1143    1.1155 H   0  0  0  0  0  0  0  0  0  0  0  0
    2.1667   -0.9841   -1.8753 H   0  0  0  0  0  0  0  0  0  0  0  0
    4.5250    1.2544    1.8733 H   0  0  0  0  0  0  0  0  0  0  0  0
    4.3403   -1.8498   -1.1083 H   0  0  0  0  0  0  0  0  0  0  0  0
    6.0996   -0.2803    1.5853 H   0  0  0  0  0  0  0  0  0  0  0  0
  1 11  2  0  0  0  0
  2 12  2  0  0  0  0
  3 19  1  0  0  0  0
  3 35  1  0  0  0  0
  4  6  1  0  0  0  0
  4  8  1  0  0  0  0
  4 11  1  0  0  0  0
  5 10  1  0  0  0  0
  5 12  1  0  0  0  0
  5 28  1  0  0  0  0
  6  7  1  0  0  0  0
  6 12  1  0  0  0  0
  6 20  1  0  0  0  0
  7  9  1  0  0  0  0
  7 21  1  0  0  0  0
  7 22  1  0  0  0  0
  8  9  1  0  0  0  0
  8 23  1  0  0  0  0
  8 24  1  0  0  0  0
  9 25  1  0  0  0  0
  9 26  1  0  0  0  0
 10 11  1  0  0  0  0
 10 13  1  0  0  0  0
 10 27  1  0  0  0  0
 13 14  1  0  0  0  0
 13 29  1  0  0  0  0
 13 30  1  0  0  0  0
 14 15  2  0  0  0  0
 14 16  1  0  0  0  0
 15 17  1  0  0  0  0
 15 31  1  0  0  0  0
 16 18  2  0  0  0  0
 16 32  1  0  0  0  0
 17 19  2  0  0  0  0
 17 33  1  0  0  0  0
 18 19  1  0  0  0  0
 18 34  1  0  0  0  0
M  END
> <PUBCHEM_COMPOUND_CID>
119404

> <PUBCHEM_CONFORMER_RMSD>
0.6

> <PUBCHEM_CONFORMER_DIVERSEORDER>
1
4
5
3
6
2

> <PUBCHEM_MMFF94_PARTIAL_CHARGES>
23
1 -0.57
10 0.36
11 0.57
12 0.57
13 0.14
14 -0.14
15 -0.15
16 -0.15
17 -0.15
18 -0.15
19 0.08
2 -0.57
28 0.37
3 -0.53
31 0.15
32 0.15
33 0.15
34 0.15
35 0.45
4 -0.66
5 -0.73
6 0.36
8 0.3

> <PUBCHEM_EFFECTIVE_ROTOR_COUNT>
3

> <PUBCHEM_PHARMACOPHORE_FEATURES>
7
1 1 acceptor
1 2 acceptor
1 3 donor
1 5 donor
5 4 6 7 8 9 rings
6 14 15 16 17 18 19 rings
6 4 5 6 10 11 12 rings

> <PUBCHEM_HEAVY_ATOM_COUNT>
19

> <PUBCHEM_ATOM_DEF_STEREO_COUNT>
2

> <PUBCHEM_ATOM_UDEF_STEREO_COUNT>
0

> <PUBCHEM_BOND_DEF_STEREO_COUNT>
0

> <PUBCHEM_BOND_UDEF_STEREO_COUNT>
0

> <PUBCHEM_ISOTOPIC_ATOM_COUNT>
0

> <PUBCHEM_COMPONENT_COUNT>
1

> <PUBCHEM_CACTVS_TAUTO_COUNT>
4

> <PUBCHEM_CONFORMER_ID>
0001D26C00000001

> <PUBCHEM_MMFF94_ENERGY>
59.4202

> <PUBCHEM_FEATURE_SELFOVERLAP>
35.62

> <PUBCHEM_SHAPE_FINGERPRINT>
11132069 177 18343308076099560431
12119455 92 17346598564911871765
12236239 1 17167867443842928108
12251169 10 18342457054068117244
12633257 1 18131351938179052232
128620 24 10735879473519171057
13140716 1 18267306606566648051
13533116 47 17346047666362714222
13544592 145 18130240258840679862
13551218 46 18335138635654015954
13675066 3 18409452522162122739
13862211 1 18336830896551580555
14341114 176 18342458149691167664
14420673 8 18192714445460304546
14866123 147 16761432713027448462
15042514 8 18336551624734876275
15375358 24 18060703883530030046
15885798 251 18261115196498249861
17804303 29 18411705387122604596
1813 80 17313105267434028884
19141452 34 18343303699443801575
19784866 240 16515402945900616370
200 152 14634586069061705732
20279233 1 18131355206511981804
20361792 2 16950276338894761156
20510252 161 18200878366155838953
20645477 70 12973878187863459664
20871999 31 7853583417231749374
21033648 29 18058714828262063408
21065199 12 18343300375233826224
21637258 2 16081371920863598745
22182313 1 18193004725150776389
22646028 28 17749390377618627344
22854114 59 17775287157686479468
23366157 5 17754742950447055877
23402539 116 18343295973161438325
23559900 14 18200329783210576732
26918003 58 18131068225550825512
2838139 119 14691185530677918875
351380 180 17775566420697159953
351380 3 17603300441148159634
42 15 18408042909626994912
4340502 62 15482681178071671015
465052 167 17677067831570166491
474 4 13614233811271667874
5104073 3 18338244867876958937
559249 180 17823127935166206354
58807428 26 18338249167445306803
5924683 9 17845082042799863887
69090 78 18201717353593687343
9709674 26 18273500082641475254

> <PUBCHEM_SHAPE_MULTIPOLES>
363.44
10.7
1.96
0.99
4.85
0.25
-0.04
1.84
-3.69
-1.26
0.3
0.5
0
0.38

> <PUBCHEM_SHAPE_SELFOVERLAP>
784.113

> <PUBCHEM_SHAPE_VOLUME>
199.5

> <PUBCHEM_COORDINATE_TYPE>
2
5
10

$$$$
