12072107
  -OEChem-03112306593D

 31 32  0     1  0  0  0  0  0999 V2000
    2.0664    2.7133    0.2688 O   0  0  0  0  0  0  0  0  0  0  0  0
    2.5673   -2.5560    0.3752 O   0  0  0  0  0  0  0  0  0  0  0  0
   -5.2311   -1.0328   -0.7030 O   0  0  0  0  0  0  0  0  0  0  0  0
    1.2575   -0.6767    0.6007 N   0  0  0  0  0  0  0  0  0  0  0  0
    3.2746    0.8188   -0.2303 N   0  0  0  0  0  0  0  0  0  0  0  0
    0.8712    0.6128    0.0470 C   0  0  1  0  0  0  0  0  0  0  0  0
   -0.2880    1.2203    0.8204 C   0  0  0  0  0  0  0  0  0  0  0  0
    3.2542   -0.5315   -0.7734 C   0  0  2  0  0  0  0  0  0  0  0  0
    2.1089    1.4988    0.0878 C   0  0  0  0  0  0  0  0  0  0  0  0
    2.3735   -1.3641    0.1483 C   0  0  0  0  0  0  0  0  0  0  0  0
   -1.6082    0.6182    0.4132 C   0  0  0  0  0  0  0  0  0  0  0  0
    4.6587   -1.1021   -0.8856 C   0  0  0  0  0  0  0  0  0  0  0  0
   -2.3298    1.1939   -0.6219 C   0  0  0  0  0  0  0  0  0  0  0  0
   -2.0811   -0.5018    1.0809 C   0  0  0  0  0  0  0  0  0  0  0  0
   -3.5521    0.6369   -0.9979 C   0  0  0  0  0  0  0  0  0  0  0  0
   -3.3033   -1.0588    0.7047 C   0  0  0  0  0  0  0  0  0  0  0  0
   -4.0388   -0.4894   -0.3346 C   0  0  0  0  0  0  0  0  0  0  0  0
    0.6146    0.4621   -1.0097 H   0  0  0  0  0  0  0  0  0  0  0  0
   -0.3477    2.3039    0.6531 H   0  0  0  0  0  0  0  0  0  0  0  0
   -0.1428    1.1070    1.9034 H   0  0  0  0  0  0  0  0  0  0  0  0
    2.7822   -0.4922   -1.7620 H   0  0  0  0  0  0  0  0  0  0  0  0
    0.5967   -1.1908    1.1740 H   0  0  0  0  0  0  0  0  0  0  0  0
    4.1337    1.3576   -0.2894 H   0  0  0  0  0  0  0  0  0  0  0  0
    5.1416   -1.1653    0.0963 H   0  0  0  0  0  0  0  0  0  0  0  0
    4.6407   -2.1098   -1.3139 H   0  0  0  0  0  0  0  0  0  0  0  0
    5.2859   -0.4716   -1.5249 H   0  0  0  0  0  0  0  0  0  0  0  0
   -1.9583    2.0697   -1.1465 H   0  0  0  0  0  0  0  0  0  0  0  0
   -1.5245   -0.9493    1.8990 H   0  0  0  0  0  0  0  0  0  0  0  0
   -4.1151    1.0896   -1.8098 H   0  0  0  0  0  0  0  0  0  0  0  0
   -3.6784   -1.9349    1.2265 H   0  0  0  0  0  0  0  0  0  0  0  0
   -5.6015   -0.5124   -1.4365 H   0  0  0  0  0  0  0  0  0  0  0  0
  1  9  2  0  0  0  0
  2 10  2  0  0  0  0
  3 17  1  0  0  0  0
  3 31  1  0  0  0  0
  4  6  1  0  0  0  0
  4 10  1  0  0  0  0
  4 22  1  0  0  0  0
  5  8  1  0  0  0  0
  5  9  1  0  0  0  0
  5 23  1  0  0  0  0
  6  7  1  0  0  0  0
  6  9  1  0  0  0  0
  6 18  1  0  0  0  0
  7 11  1  0  0  0  0
  7 19  1  0  0  0  0
  7 20  1  0  0  0  0
  8 10  1  0  0  0  0
  8 12  1  0  0  0  0
  8 21  1  0  0  0  0
 11 13  2  0  0  0  0
 11 14  1  0  0  0  0
 12 24  1  0  0  0  0
 12 25  1  0  0  0  0
 12 26  1  0  0  0  0
 13 15  1  0  0  0  0
 13 27  1  0  0  0  0
 14 16  2  0  0  0  0
 14 28  1  0  0  0  0
 15 17  2  0  0  0  0
 15 29  1  0  0  0  0
 16 17  1  0  0  0  0
 16 30  1  0  0  0  0
M  END
> <PUBCHEM_COMPOUND_CID>
12072107

> <PUBCHEM_CONFORMER_RMSD>
0.6

> <PUBCHEM_CONFORMER_DIVERSEORDER>
2
11
12
7
8
10
4
5
13
3
9
6
14
1

> <PUBCHEM_MMFF94_PARTIAL_CHARGES>
23
1 -0.57
10 0.57
11 -0.14
13 -0.15
14 -0.15
15 -0.15
16 -0.15
17 0.08
2 -0.57
22 0.37
23 0.37
27 0.15
28 0.15
29 0.15
3 -0.53
30 0.15
31 0.45
4 -0.73
5 -0.73
6 0.36
7 0.14
8 0.36
9 0.57

> <PUBCHEM_EFFECTIVE_ROTOR_COUNT>
2.8

> <PUBCHEM_PHARMACOPHORE_FEATURES>
7
1 1 acceptor
1 2 acceptor
1 3 donor
1 4 donor
1 5 donor
6 11 13 14 15 16 17 rings
6 4 5 6 8 9 10 rings

> <PUBCHEM_HEAVY_ATOM_COUNT>
17

> <PUBCHEM_ATOM_DEF_STEREO_COUNT>
2

> <PUBCHEM_ATOM_UDEF_STEREO_COUNT>
0

> <PUBCHEM_BOND_DEF_STEREO_COUNT>
0

> <PUBCHEM_BOND_UDEF_STEREO_COUNT>
0

> <PUBCHEM_ISOTOPIC_ATOM_COUNT>
0

> <PUBCHEM_COMPONENT_COUNT>
1

> <PUBCHEM_CACTVS_TAUTO_COUNT>
8

> <PUBCHEM_CONFORMER_ID>
00B834AB00000002

> <PUBCHEM_MMFF94_ENERGY>
53.5567

> <PUBCHEM_FEATURE_SELFOVERLAP>
35.531

> <PUBCHEM_SHAPE_FINGERPRINT>
10366900 7 18186243934914067691
10498660 4 16588291753681143213
11471102 20 18410857693838320304
11615757 297 18273501173457250747
11806522 49 18342742901569487416
12553582 1 18267314144324034106
13296908 3 18413386540459535193
13862211 1 18339082589070328118
14252887 29 17703514303275206494
14576447 43 18412263904944251902
15477762 27 18413671309823757524
17834074 16 18336828684025900339
18186145 218 18114175329054889433
18915474 69 17917425483937826239
19422 9 17846226574295558521
19433438 38 18040998414625268662
19784866 240 17775290452058284007
200 152 18202282502644087089
20279233 1 18187364358758642233
20281475 54 18339080367606339489
20361792 2 17275378811661701289
20645477 70 18343865541026349573
20671657 53 18341054025496373008
20871999 31 17822009779338716589
21256008 61 18341896277452459204
21713013 43 18334855030736971343
221357 26 18335698317585191717
221490 88 18337118976523152954
2255824 54 18342180007255592076
22646028 28 17917712392069180583
23402539 116 18128825149179786606
23402655 69 18187927205691052621
23557571 272 17676476268434206845
23559900 14 18334288807628430721
23596394 208 18261104179811878455
2748010 2 17902810874360659354
2838139 119 15720261516119132918
2871803 45 18335139799494746087
312423 11 18131084748190156617
3323516 105 18334294283906548243
33824 294 18339077206716170424
3472631 163 14923948972360631087
465052 167 17702948170893703847
4921388 177 16443362974192677595
58051976 100 18411981326292711093
7364860 26 18343018938869941560
93112 12 18335137579249822709
9709674 26 18262236741556037915

> <PUBCHEM_SHAPE_MULTIPOLES>
322.28
9.02
2.05
0.99
2.73
0.28
0.03
-3.66
2.98
-1.61
-0.23
0.37
-0.06
0.4

> <PUBCHEM_SHAPE_SELFOVERLAP>
682.006

> <PUBCHEM_SHAPE_VOLUME>
179.1

> <PUBCHEM_COORDINATE_TYPE>
2
5
10

$$$$
