122225045
  -OEChem-03112307453D

 33 35  0     1  0  0  0  0  0999 V2000
    1.0917   -0.0457   -1.1214 O   0  0  0  0  0  0  0  0  0  0  0  0
    0.6303   -1.3410    0.8629 O   0  0  0  0  0  0  0  0  0  0  0  0
    4.3303    0.7833    1.3427 O   0  0  0  0  0  0  0  0  0  0  0  0
    3.6362    1.3164   -1.3030 O   0  0  0  0  0  0  0  0  0  0  0  0
   -4.4839    2.2337   -0.1361 O   0  0  0  0  0  0  0  0  0  0  0  0
   -1.6642   -0.0186    0.1785 N   0  0  0  0  0  0  0  0  0  0  0  0
    0.8040   -0.0322    0.2867 C   0  0  1  0  0  0  0  0  0  0  0  0
    1.9463    0.6731    1.0400 C   0  0  0  0  0  0  0  0  0  0  0  0
   -0.4911    0.7712    0.5056 C   0  0  0  0  0  0  0  0  0  0  0  0
    3.2957    0.0373    0.7129 C   0  0  1  0  0  0  0  0  0  0  0  0
    3.5117   -0.0135   -0.7971 C   0  0  1  0  0  0  0  0  0  0  0  0
    2.3226   -0.6863   -1.4708 C   0  0  0  0  0  0  0  0  0  0  0  0
   -1.6388   -1.3845    0.0823 C   0  0  0  0  0  0  0  0  0  0  0  0
   -0.3708   -2.1427    0.2203 C   0  0  0  0  0  0  0  0  0  0  0  0
   -2.9309    0.4529   -0.0128 C   0  0  0  0  0  0  0  0  0  0  0  0
   -2.9293   -1.7969   -0.1820 C   0  0  0  0  0  0  0  0  0  0  0  0
   -3.7438   -0.6368   -0.2417 C   0  0  0  0  0  0  0  0  0  0  0  0
   -3.3160    1.8303    0.0329 C   0  0  0  0  0  0  0  0  0  0  0  0
    1.7833    0.6291    2.1245 H   0  0  0  0  0  0  0  0  0  0  0  0
    1.9802    1.7377    0.7726 H   0  0  0  0  0  0  0  0  0  0  0  0
   -0.6136    1.0483    1.5594 H   0  0  0  0  0  0  0  0  0  0  0  0
   -0.4964    1.6683   -0.1222 H   0  0  0  0  0  0  0  0  0  0  0  0
    3.3327   -0.9819    1.1162 H   0  0  0  0  0  0  0  0  0  0  0  0
    4.4464   -0.5347   -1.0299 H   0  0  0  0  0  0  0  0  0  0  0  0
    2.4137   -0.6171   -2.5597 H   0  0  0  0  0  0  0  0  0  0  0  0
    2.2703   -1.7481   -1.2072 H   0  0  0  0  0  0  0  0  0  0  0  0
   -0.5220   -3.0341    0.8372 H   0  0  0  0  0  0  0  0  0  0  0  0
   -0.0054   -2.4696   -0.7585 H   0  0  0  0  0  0  0  0  0  0  0  0
   -3.2484   -2.8203   -0.3225 H   0  0  0  0  0  0  0  0  0  0  0  0
   -4.8083   -0.6082   -0.4309 H   0  0  0  0  0  0  0  0  0  0  0  0
    4.1547    0.7801    2.2992 H   0  0  0  0  0  0  0  0  0  0  0  0
    3.7829    1.2522   -2.2622 H   0  0  0  0  0  0  0  0  0  0  0  0
   -2.5292    2.5739    0.2387 H   0  0  0  0  0  0  0  0  0  0  0  0
  1  7  1  0  0  0  0
  1 12  1  0  0  0  0
  2  7  1  0  0  0  0
  2 14  1  0  0  0  0
  3 10  1  0  0  0  0
  3 31  1  0  0  0  0
  4 11  1  0  0  0  0
  4 32  1  0  0  0  0
  5 18  2  0  0  0  0
  6  9  1  0  0  0  0
  6 13  1  0  0  0  0
  6 15  1  0  0  0  0
  7  8  1  0  0  0  0
  7  9  1  0  0  0  0
  8 10  1  0  0  0  0
  8 19  1  0  0  0  0
  8 20  1  0  0  0  0
  9 21  1  0  0  0  0
  9 22  1  0  0  0  0
 10 11  1  0  0  0  0
 10 23  1  0  0  0  0
 11 12  1  0  0  0  0
 11 24  1  0  0  0  0
 12 25  1  0  0  0  0
 12 26  1  0  0  0  0
 13 14  1  0  0  0  0
 13 16  2  0  0  0  0
 14 27  1  0  0  0  0
 14 28  1  0  0  0  0
 15 17  2  0  0  0  0
 15 18  1  0  0  0  0
 16 17  1  0  0  0  0
 16 29  1  0  0  0  0
 17 30  1  0  0  0  0
 18 33  1  0  0  0  0
M  END
> <PUBCHEM_COMPOUND_CID>
122225045

> <PUBCHEM_CONFORMER_RMSD>
0.6

> <PUBCHEM_CONFORMER_DIVERSEORDER>
1
3
2

> <PUBCHEM_MMFF94_PARTIAL_CHARGES>
22
1 -0.56
10 0.28
11 0.28
12 0.28
13 -0.33
14 0.46
15 -0.24
16 -0.15
17 -0.15
18 0.59
2 -0.56
29 0.15
3 -0.68
30 0.15
31 0.4
32 0.4
33 0.06
4 -0.68
5 -0.57
6 0.05
7 0.56
9 0.26

> <PUBCHEM_EFFECTIVE_ROTOR_COUNT>
2.6

> <PUBCHEM_PHARMACOPHORE_FEATURES>
11
1 1 acceptor
1 2 acceptor
1 3 acceptor
1 3 donor
1 4 acceptor
1 4 donor
1 5 acceptor
1 6 cation
5 6 13 15 16 17 rings
6 1 7 8 10 11 12 rings
6 2 6 7 9 13 14 rings

> <PUBCHEM_HEAVY_ATOM_COUNT>
18

> <PUBCHEM_ATOM_DEF_STEREO_COUNT>
3

> <PUBCHEM_ATOM_UDEF_STEREO_COUNT>
0

> <PUBCHEM_BOND_DEF_STEREO_COUNT>
0

> <PUBCHEM_BOND_UDEF_STEREO_COUNT>
0

> <PUBCHEM_ISOTOPIC_ATOM_COUNT>
0

> <PUBCHEM_COMPONENT_COUNT>
1

> <PUBCHEM_CACTVS_TAUTO_COUNT>
1

> <PUBCHEM_CONFORMER_ID>
0749019500000001

> <PUBCHEM_MMFF94_ENERGY>
37.6157

> <PUBCHEM_FEATURE_SELFOVERLAP>
55.961

> <PUBCHEM_SHAPE_FINGERPRINT>
10498660 4 18410571743722413349
10608611 8 18201715193072241097
10646746 165 18413103961591690600
11132069 177 18410290298282699641
11552529 35 15141834802138291641
11640471 11 17604161435745400540
12173636 292 18340201878647631349
12236239 1 17603578655748735682
12403259 415 18131637806923202160
12491281 212 17968103065815162026
12500047 106 18341894086592045894
12788726 201 17391083890560258874
13296908 3 17418098732044739398
14739800 52 18047463715566352248
15219456 202 17847062198610743562
15309172 13 15213016055090344521
15375358 24 17917704703998644928
15775835 57 18334577897871872329
16945 1 18337394966615766419
17357990 137 17603879900481035070
1741750 31 18340206285231166937
18186145 218 17989216935942515226
19026448 4 17917994987990111958
19026448 5 17894909659149162784
19422 9 17749105621070871794
200 152 15267068021190058146
20279233 1 17847062203063992362
20510252 161 18272089435235117259
20645477 56 18341897377011806673
20645477 70 16559039268087898428
20871999 31 18341057397140574733
22926399 65 18411422791132997269
23402539 116 18341043064998277116
23557571 272 18272094919449528316
23559900 14 18272657801469502166
3268164 11 18342447180138647303
4028521 119 18202282468448132393
474 4 16517948487260366444
495365 180 17346022377837673362
573450 72 18261660537032848098
633830 44 17676214558690990718
69090 78 17775281716068845967
7364860 26 18125717877094807947
77492 1 17530961414624186194

> <PUBCHEM_SHAPE_MULTIPOLES>
336.1
7.85
1.92
1.12
0.31
0.02
0.15
-3.33
0.6
-2.08
-0.02
1.33
-0.06
0.27

> <PUBCHEM_SHAPE_SELFOVERLAP>
725.115

> <PUBCHEM_SHAPE_VOLUME>
183.1

> <PUBCHEM_COORDINATE_TYPE>
2
5
10

$$$$
