122363512
  -OEChem-03102308263D

 61 63  0     0  0  0  0  0  0999 V2000
   -0.3757   -2.2629   -0.4849 O   0  0  0  0  0  0  0  0  0  0  0  0
    4.2949   -1.7055    0.6579 O   0  0  0  0  0  0  0  0  0  0  0  0
    1.8758    1.7692   -1.5384 O   0  0  0  0  0  0  0  0  0  0  0  0
   -0.5096    0.5926   -2.7647 O   0  0  0  0  0  0  0  0  0  0  0  0
   -7.5287    1.5403    1.8250 O   0  0  0  0  0  0  0  0  0  0  0  0
   -0.4435   -3.4807    0.2805 C   0  0  0  0  0  0  0  0  0  0  0  0
    0.8742   -4.2697    0.2142 C   0  0  0  0  0  0  0  0  0  0  0  0
    2.0479   -3.4329    0.7031 C   0  0  0  0  0  0  0  0  0  0  0  0
    1.9892   -2.0598    0.1025 C   0  0  0  0  0  0  0  0  0  0  0  0
    0.7994   -1.5599   -0.4397 C   0  0  0  0  0  0  0  0  0  0  0  0
   -0.8603   -3.1418    1.7199 C   0  0  0  0  0  0  0  0  0  0  0  0
   -1.5559   -4.3203   -0.3645 C   0  0  0  0  0  0  0  0  0  0  0  0
    3.1314   -1.2475    0.1087 C   0  0  0  0  0  0  0  0  0  0  0  0
    0.7654   -0.2789   -0.9984 C   0  0  0  0  0  0  0  0  0  0  0  0
    3.0921    0.0338   -0.4415 C   0  0  0  0  0  0  0  0  0  0  0  0
    1.9102    0.5166   -0.9982 C   0  0  0  0  0  0  0  0  0  0  0  0
    4.3186    0.8896   -0.4335 C   0  0  0  0  0  0  0  0  0  0  0  0
   -0.4698    0.2406   -1.5792 C   0  0  0  0  0  0  0  0  0  0  0  0
    4.6184    1.4682    0.9261 C   0  0  0  0  0  0  0  0  0  0  0  0
   -1.6760    0.3662   -0.6961 C   0  0  0  0  0  0  0  0  0  0  0  0
    5.2028    2.6464    1.2161 C   0  0  0  0  0  0  0  0  0  0  0  0
    1.5273    2.8398   -0.6644 C   0  0  0  0  0  0  0  0  0  0  0  0
   -2.8229    0.8652   -1.1804 C   0  0  0  0  0  0  0  0  0  0  0  0
    5.4725    3.1638    2.6005 C   0  0  0  0  0  0  0  0  0  0  0  0
    5.6562    3.5639    0.1116 C   0  0  0  0  0  0  0  0  0  0  0  0
   -4.0551    1.0432   -0.3923 C   0  0  0  0  0  0  0  0  0  0  0  0
   -4.2350    0.3285    0.7920 C   0  0  0  0  0  0  0  0  0  0  0  0
   -5.0425    1.9255   -0.8312 C   0  0  0  0  0  0  0  0  0  0  0  0
   -5.4022    0.4957    1.5372 C   0  0  0  0  0  0  0  0  0  0  0  0
   -6.2096    2.0928   -0.0861 C   0  0  0  0  0  0  0  0  0  0  0  0
   -6.3894    1.3779    1.0981 C   0  0  0  0  0  0  0  0  0  0  0  0
    1.0692   -4.5533   -0.8297 H   0  0  0  0  0  0  0  0  0  0  0  0
    0.8110   -5.1990    0.7926 H   0  0  0  0  0  0  0  0  0  0  0  0
    2.9675   -3.9531    0.4102 H   0  0  0  0  0  0  0  0  0  0  0  0
    2.0330   -3.3540    1.7961 H   0  0  0  0  0  0  0  0  0  0  0  0
   -1.8247   -2.6203    1.7294 H   0  0  0  0  0  0  0  0  0  0  0  0
   -0.1497   -2.4642    2.2039 H   0  0  0  0  0  0  0  0  0  0  0  0
   -0.9495   -4.0441    2.3336 H   0  0  0  0  0  0  0  0  0  0  0  0
   -2.5065   -3.7741   -0.3670 H   0  0  0  0  0  0  0  0  0  0  0  0
   -1.7024   -5.2701    0.1601 H   0  0  0  0  0  0  0  0  0  0  0  0
   -1.3233   -4.5349   -1.4141 H   0  0  0  0  0  0  0  0  0  0  0  0
    5.1753    0.2762   -0.7433 H   0  0  0  0  0  0  0  0  0  0  0  0
    4.2424    1.6686   -1.1974 H   0  0  0  0  0  0  0  0  0  0  0  0
    4.1262   -2.4622    1.2407 H   0  0  0  0  0  0  0  0  0  0  0  0
    4.3400    0.8483    1.7782 H   0  0  0  0  0  0  0  0  0  0  0  0
   -1.5495    0.0753    0.3403 H   0  0  0  0  0  0  0  0  0  0  0  0
    1.9332    3.7664   -1.0794 H   0  0  0  0  0  0  0  0  0  0  0  0
    1.9344    2.6998    0.3417 H   0  0  0  0  0  0  0  0  0  0  0  0
    0.4386    2.9309   -0.6088 H   0  0  0  0  0  0  0  0  0  0  0  0
   -2.8889    1.1784   -2.2195 H   0  0  0  0  0  0  0  0  0  0  0  0
    6.5474    3.3009    2.7560 H   0  0  0  0  0  0  0  0  0  0  0  0
    5.1091    2.4717    3.3672 H   0  0  0  0  0  0  0  0  0  0  0  0
    4.9701    4.1245    2.7524 H   0  0  0  0  0  0  0  0  0  0  0  0
    6.6438    3.9759    0.3490 H   0  0  0  0  0  0  0  0  0  0  0  0
    5.7616    3.0760   -0.8601 H   0  0  0  0  0  0  0  0  0  0  0  0
    4.9566    4.3996    0.0075 H   0  0  0  0  0  0  0  0  0  0  0  0
   -3.5037   -0.3844    1.1613 H   0  0  0  0  0  0  0  0  0  0  0  0
   -4.9187    2.4916   -1.7512 H   0  0  0  0  0  0  0  0  0  0  0  0
   -5.5393   -0.0673    2.4565 H   0  0  0  0  0  0  0  0  0  0  0  0
   -6.9712    2.7831   -0.4387 H   0  0  0  0  0  0  0  0  0  0  0  0
   -8.1000    2.1863    1.3751 H   0  0  0  0  0  0  0  0  0  0  0  0
  1  6  1  0  0  0  0
  1 10  1  0  0  0  0
  2 13  1  0  0  0  0
  2 44  1  0  0  0  0
  3 16  1  0  0  0  0
  3 22  1  0  0  0  0
  4 18  2  0  0  0  0
  5 31  1  0  0  0  0
  5 61  1  0  0  0  0
  6  7  1  0  0  0  0
  6 11  1  0  0  0  0
  6 12  1  0  0  0  0
  7  8  1  0  0  0  0
  7 32  1  0  0  0  0
  7 33  1  0  0  0  0
  8  9  1  0  0  0  0
  8 34  1  0  0  0  0
  8 35  1  0  0  0  0
  9 10  1  0  0  0  0
  9 13  2  0  0  0  0
 10 14  2  0  0  0  0
 11 36  1  0  0  0  0
 11 37  1  0  0  0  0
 11 38  1  0  0  0  0
 12 39  1  0  0  0  0
 12 40  1  0  0  0  0
 12 41  1  0  0  0  0
 13 15  1  0  0  0  0
 14 16  1  0  0  0  0
 14 18  1  0  0  0  0
 15 16  2  0  0  0  0
 15 17  1  0  0  0  0
 17 19  1  0  0  0  0
 17 42  1  0  0  0  0
 17 43  1  0  0  0  0
 18 20  1  0  0  0  0
 19 21  2  0  0  0  0
 19 45  1  0  0  0  0
 20 23  2  0  0  0  0
 20 46  1  0  0  0  0
 21 24  1  0  0  0  0
 21 25  1  0  0  0  0
 22 47  1  0  0  0  0
 22 48  1  0  0  0  0
 22 49  1  0  0  0  0
 23 26  1  0  0  0  0
 23 50  1  0  0  0  0
 24 51  1  0  0  0  0
 24 52  1  0  0  0  0
 24 53  1  0  0  0  0
 25 54  1  0  0  0  0
 25 55  1  0  0  0  0
 25 56  1  0  0  0  0
 26 27  2  0  0  0  0
 26 28  1  0  0  0  0
 27 29  1  0  0  0  0
 27 57  1  0  0  0  0
 28 30  2  0  0  0  0
 28 58  1  0  0  0  0
 29 31  2  0  0  0  0
 29 59  1  0  0  0  0
 30 31  1  0  0  0  0
 30 60  1  0  0  0  0
M  END
> <PUBCHEM_COMPOUND_CID>
122363512

> <PUBCHEM_CONFORMER_RMSD>
0.8

> <PUBCHEM_CONFORMER_DIVERSEORDER>
1
29
187
205
232
279
239
204
20
212
31
54
156
188
251
190
216
211
171
144
19
117
50
70
266
228
178
285
110
270
215
136
181
2
91
272
195
186
79
86
180
170
97
132
87
213
81
173
40
260
177
145
23
74
8
194
182
123
120
118
113
11
75
137
141
252
30
241
259
105
196
242
83
273
43
207
24
5
73
267
49
77
268
102
163
98
202
27
201
214
60
9
199
65
253
169
119
18
109
17
69
13
143
14
176
121
276
99
100
55
139
277
78
26
51
246
64
191
167
116
53
236
230
158
92
111
174
160
133
254
193
263
128
226
63
265
256
200
258
225
115
95
59
175
233
165
248
222
45
284
281
36
210
223
189
108
244
28
47
72
67
58
261
166
155
269
278
12
151
147
172
129
247
198
25
135
104
22
157
57
7
229
32
197
208
61
179
130
152
3
282
93
34
15
124
221
131
122
283
164
21
82
154
48
33
149
159
140
227
6
39
114
142
249
192
245
138
220
112
224
107
275
185
4
234
150
153
10
168
101
146
240
44
71
37
88
238
38
103
68
106
134
16
76
162
206
274
262
237
231
235
184
42
148
56
217
52
255
94
66
62
126
85
89
127
203
219
41
84
280
250
264
35
218
80
257
161
243
46
90
96
209
183
125
271

> <PUBCHEM_MMFF94_PARTIAL_CHARGES>
37
1 -0.36
10 0.08
13 0.08
14 0.09
15 -0.14
16 0.08
17 0.28
18 0.47
19 -0.29
2 -0.53
20 -0.14
21 -0.28
22 0.28
23 -0.18
24 0.14
25 0.14
26 0.03
27 -0.15
28 -0.15
29 -0.15
3 -0.36
30 -0.15
31 0.08
4 -0.57
44 0.45
45 0.15
46 0.15
5 -0.53
50 0.15
57 0.15
58 0.15
59 0.15
6 0.28
60 0.15
61 0.45
8 0.14
9 -0.14

> <PUBCHEM_EFFECTIVE_ROTOR_COUNT>
6.8

> <PUBCHEM_PHARMACOPHORE_FEATURES>
10
1 1 acceptor
1 2 donor
1 3 acceptor
1 4 acceptor
1 5 donor
3 21 24 25 hydrophobe
3 6 11 12 hydrophobe
6 1 6 7 8 9 10 rings
6 26 27 28 29 30 31 rings
6 9 10 13 14 15 16 rings

> <PUBCHEM_HEAVY_ATOM_COUNT>
31

> <PUBCHEM_ATOM_DEF_STEREO_COUNT>
0

> <PUBCHEM_ATOM_UDEF_STEREO_COUNT>
0

> <PUBCHEM_BOND_DEF_STEREO_COUNT>
1

> <PUBCHEM_BOND_UDEF_STEREO_COUNT>
0

> <PUBCHEM_ISOTOPIC_ATOM_COUNT>
0

> <PUBCHEM_COMPONENT_COUNT>
1

> <PUBCHEM_CACTVS_TAUTO_COUNT>
393

> <PUBCHEM_CONFORMER_ID>
074B1E7800000001

> <PUBCHEM_MMFF94_ENERGY>
107.5053

> <PUBCHEM_FEATURE_SELFOVERLAP>
50.776

> <PUBCHEM_SHAPE_FINGERPRINT>
10074138 170 17823975838909546715
10165383 225 18261967271450691934
11070050 100 18411691076170164568
11112241 14 18409728444379330553
11578080 2 18341053038191907122
12035758 1 18190164708271266378
12390115 104 18267022954700979428
12422481 6 17894910741333488530
12596602 18 17989209235746622497
12788726 201 17468767733141901484
13140716 1 18262219085468158594
13402501 40 17605568643447599507
13726171 33 17901952165140733028
13955234 65 18265613178171533243
14020679 6 18198334250672932808
14565420 104 18412545401173973857
14705955 166 17405400670473027552
14790565 3 17753634608582206444
14955137 171 17975967671069228018
15324884 4 17315895694907327486
15338160 23 17975694210311223740
15357212 105 17973452293713828348
15420108 30 18337102462411245218
16114785 44 18126282175710366043
17913733 40 18409164390144534101
19319366 153 18272363140473655083
19438510 23 17774712173514601488
1979834 28 18187092710936240661
20511986 3 18339632366390084405
20642791 13 18194959875452264414
21033648 29 18337115656302449728
21197605 99 18188226355281678067
22122407 14 18057891243209746305
23559900 14 17823988818854265021
23569914 2 16914504883600564920
23845131 108 18335696161306348323
24180151 40 17975381884384577114
3178227 256 18263643970790810170
392239 28 18339632361129869770
4173938 306 17677315170685054069
4340502 62 18410296895478878517
5104073 3 18335409201714286930
57527573 199 18059007419083959072
653340 110 18194117653761103546
9658208 31 18338528529340189030
9777508 108 18265616678590705402

> <PUBCHEM_SHAPE_MULTIPOLES>
608.62
14.26
5.41
1.79
14.92
5.21
0.23
-19.37
8.61
-3.74
1.65
0.09
-1.03
1.02

> <PUBCHEM_SHAPE_SELFOVERLAP>
1301.814

> <PUBCHEM_SHAPE_VOLUME>
338.2

> <PUBCHEM_COORDINATE_TYPE>
2
5
10

$$$$
