122363514
  -OEChem-03102308423D

 54 55  0     0  0  0  0  0  0999 V2000
    5.6981   -2.2347    0.8674 O   0  0  0  0  0  0  0  0  0  0  0  0
    0.5497   -0.8916   -0.7029 O   0  0  0  0  0  0  0  0  0  0  0  0
    4.0087    1.6632    1.3979 O   0  0  0  0  0  0  0  0  0  0  0  0
    0.0300    3.8266   -0.0503 O   0  0  0  0  0  0  0  0  0  0  0  0
   -1.3017    2.0743   -2.0236 O   0  0  0  0  0  0  0  0  0  0  0  0
   -7.5312   -2.6441    1.1639 O   0  0  0  0  0  0  0  0  0  0  0  0
    5.1391   -2.1953   -0.4474 C   0  0  0  0  0  0  0  0  0  0  0  0
    4.2347   -0.9508   -0.5536 C   0  0  0  0  0  0  0  0  0  0  0  0
    3.1163   -0.8880    0.4964 C   0  0  0  0  0  0  0  0  0  0  0  0
    6.2849   -2.1726   -1.4613 C   0  0  0  0  0  0  0  0  0  0  0  0
    4.2965   -3.4608   -0.6388 C   0  0  0  0  0  0  0  0  0  0  0  0
    2.2882    0.3645    0.3476 C   0  0  0  0  0  0  0  0  0  0  0  0
    1.0301    0.3035   -0.2517 C   0  0  0  0  0  0  0  0  0  0  0  0
    2.7822    1.5843    0.8097 C   0  0  0  0  0  0  0  0  0  0  0  0
    0.2661    1.4624   -0.3889 C   0  0  0  0  0  0  0  0  0  0  0  0
    2.0181    2.7432    0.6724 C   0  0  0  0  0  0  0  0  0  0  0  0
    0.7601    2.6824    0.0731 C   0  0  0  0  0  0  0  0  0  0  0  0
    6.4960   -1.0898    1.1209 C   0  0  0  0  0  0  0  0  0  0  0  0
   -1.0494    1.4009   -1.0155 C   0  0  0  0  0  0  0  0  0  0  0  0
   -2.0992    0.5279   -0.3918 C   0  0  0  0  0  0  0  0  0  0  0  0
   -0.8462    4.1545    1.0261 C   0  0  0  0  0  0  0  0  0  0  0  0
   -3.3310    0.4633   -0.9182 C   0  0  0  0  0  0  0  0  0  0  0  0
   -4.4316   -0.3498   -0.3715 C   0  0  0  0  0  0  0  0  0  0  0  0
   -4.1527   -1.4175    0.4818 C   0  0  0  0  0  0  0  0  0  0  0  0
   -5.7523   -0.0529   -0.7084 C   0  0  0  0  0  0  0  0  0  0  0  0
   -5.1943   -2.1883    0.9979 C   0  0  0  0  0  0  0  0  0  0  0  0
   -6.7939   -0.8236   -0.1924 C   0  0  0  0  0  0  0  0  0  0  0  0
   -6.5149   -1.8913    0.6607 C   0  0  0  0  0  0  0  0  0  0  0  0
    3.7669   -0.9560   -1.5493 H   0  0  0  0  0  0  0  0  0  0  0  0
    4.8233   -0.0267   -0.5460 H   0  0  0  0  0  0  0  0  0  0  0  0
    3.5475   -0.8915    1.5060 H   0  0  0  0  0  0  0  0  0  0  0  0
    2.4884   -1.7826    0.4766 H   0  0  0  0  0  0  0  0  0  0  0  0
    6.7643   -1.1909   -1.5358 H   0  0  0  0  0  0  0  0  0  0  0  0
    5.9155   -2.4059   -2.4666 H   0  0  0  0  0  0  0  0  0  0  0  0
    7.0603   -2.9032   -1.2048 H   0  0  0  0  0  0  0  0  0  0  0  0
    3.6093   -3.6282    0.1967 H   0  0  0  0  0  0  0  0  0  0  0  0
    4.9436   -4.3461   -0.6627 H   0  0  0  0  0  0  0  0  0  0  0  0
    3.7262   -3.4346   -1.5730 H   0  0  0  0  0  0  0  0  0  0  0  0
    2.3976    3.6974    1.0298 H   0  0  0  0  0  0  0  0  0  0  0  0
    6.9071   -1.2200    2.1285 H   0  0  0  0  0  0  0  0  0  0  0  0
    5.9312   -0.1584    1.1583 H   0  0  0  0  0  0  0  0  0  0  0  0
    7.3625   -1.0067    0.4614 H   0  0  0  0  0  0  0  0  0  0  0  0
    1.2829   -1.4289   -1.0444 H   0  0  0  0  0  0  0  0  0  0  0  0
    4.1813    2.5861    1.6514 H   0  0  0  0  0  0  0  0  0  0  0  0
   -1.8137   -0.0001    0.5108 H   0  0  0  0  0  0  0  0  0  0  0  0
   -1.5800    3.3593    1.1892 H   0  0  0  0  0  0  0  0  0  0  0  0
   -0.2749    4.3306    1.9430 H   0  0  0  0  0  0  0  0  0  0  0  0
   -1.3795    5.0728    0.7654 H   0  0  0  0  0  0  0  0  0  0  0  0
   -3.5789    1.0412   -1.8052 H   0  0  0  0  0  0  0  0  0  0  0  0
   -3.1399   -1.6985    0.7549 H   0  0  0  0  0  0  0  0  0  0  0  0
   -5.9882    0.7762   -1.3712 H   0  0  0  0  0  0  0  0  0  0  0  0
   -4.9712   -3.0218    1.6584 H   0  0  0  0  0  0  0  0  0  0  0  0
   -7.8184   -0.5821   -0.4624 H   0  0  0  0  0  0  0  0  0  0  0  0
   -8.3758   -2.2986    0.8271 H   0  0  0  0  0  0  0  0  0  0  0  0
  1  7  1  0  0  0  0
  1 18  1  0  0  0  0
  2 13  1  0  0  0  0
  2 43  1  0  0  0  0
  3 14  1  0  0  0  0
  3 44  1  0  0  0  0
  4 17  1  0  0  0  0
  4 21  1  0  0  0  0
  5 19  2  0  0  0  0
  6 28  1  0  0  0  0
  6 54  1  0  0  0  0
  7  8  1  0  0  0  0
  7 10  1  0  0  0  0
  7 11  1  0  0  0  0
  8  9  1  0  0  0  0
  8 29  1  0  0  0  0
  8 30  1  0  0  0  0
  9 12  1  0  0  0  0
  9 31  1  0  0  0  0
  9 32  1  0  0  0  0
 10 33  1  0  0  0  0
 10 34  1  0  0  0  0
 10 35  1  0  0  0  0
 11 36  1  0  0  0  0
 11 37  1  0  0  0  0
 11 38  1  0  0  0  0
 12 13  1  0  0  0  0
 12 14  2  0  0  0  0
 13 15  2  0  0  0  0
 14 16  1  0  0  0  0
 15 17  1  0  0  0  0
 15 19  1  0  0  0  0
 16 17  2  0  0  0  0
 16 39  1  0  0  0  0
 18 40  1  0  0  0  0
 18 41  1  0  0  0  0
 18 42  1  0  0  0  0
 19 20  1  0  0  0  0
 20 22  2  0  0  0  0
 20 45  1  0  0  0  0
 21 46  1  0  0  0  0
 21 47  1  0  0  0  0
 21 48  1  0  0  0  0
 22 23  1  0  0  0  0
 22 49  1  0  0  0  0
 23 24  2  0  0  0  0
 23 25  1  0  0  0  0
 24 26  1  0  0  0  0
 24 50  1  0  0  0  0
 25 27  2  0  0  0  0
 25 51  1  0  0  0  0
 26 28  2  0  0  0  0
 26 52  1  0  0  0  0
 27 28  1  0  0  0  0
 27 53  1  0  0  0  0
M  END
> <PUBCHEM_COMPOUND_CID>
122363514

> <PUBCHEM_CONFORMER_RMSD>
1

> <PUBCHEM_CONFORMER_DIVERSEORDER>
5
24
64
17
14
45
83
61
50
49
71
53
12
69
74
65
48
22
16
41
32
34
47
57
21
37
20
7
46
59
39
77
15
44
29
72
31
75
4
51
78
36
11
6
54
55
79
26
76
56
52
42
23
68
66
19
18
10
43
9
38
25
62
82
33
8
13
60
30
40
58
81
80
28
3
67
1
73
27
2
35
63
70

> <PUBCHEM_MMFF94_PARTIAL_CHARGES>
35
1 -0.56
12 -0.14
13 0.08
14 0.08
15 0.09
16 -0.15
17 0.08
18 0.28
19 0.47
2 -0.53
20 -0.14
21 0.28
22 -0.18
23 0.03
24 -0.15
25 -0.15
26 -0.15
27 -0.15
28 0.08
3 -0.53
39 0.15
4 -0.36
43 0.45
44 0.45
45 0.15
49 0.15
5 -0.57
50 0.15
51 0.15
52 0.15
53 0.15
54 0.45
6 -0.53
7 0.28
9 0.14

> <PUBCHEM_EFFECTIVE_ROTOR_COUNT>
8

> <PUBCHEM_PHARMACOPHORE_FEATURES>
9
1 1 acceptor
1 2 donor
1 3 donor
1 4 acceptor
1 5 acceptor
1 6 donor
3 7 10 11 hydrophobe
6 12 13 14 15 16 17 rings
6 23 24 25 26 27 28 rings

> <PUBCHEM_HEAVY_ATOM_COUNT>
28

> <PUBCHEM_ATOM_DEF_STEREO_COUNT>
0

> <PUBCHEM_ATOM_UDEF_STEREO_COUNT>
0

> <PUBCHEM_BOND_DEF_STEREO_COUNT>
1

> <PUBCHEM_BOND_UDEF_STEREO_COUNT>
0

> <PUBCHEM_ISOTOPIC_ATOM_COUNT>
0

> <PUBCHEM_COMPONENT_COUNT>
1

> <PUBCHEM_CACTVS_TAUTO_COUNT>
292

> <PUBCHEM_CONFORMER_ID>
074B1E7A00000005

> <PUBCHEM_MMFF94_ENERGY>
107.844

> <PUBCHEM_FEATURE_SELFOVERLAP>
45.673

> <PUBCHEM_SHAPE_FINGERPRINT>
10076449 9 18339654390750691806
10669705 162 18268984303066855543
10981352 41 18339355374785048899
11135609 12 18335691767765463360
11456790 92 18272382971429477065
117089 54 17982739571722271246
12035758 1 18130494289424956338
12107183 9 18270974436483098041
12422481 6 17060338466252365348
12516196 113 18411138021753223567
12623949 98 18412270561716234830
13402501 40 18335140877727372335
13533116 47 18202283649273728947
13540713 4 18264467564491798804
13631057 29 18189055309507007010
13673619 4 18113902671756541231
13685833 64 18410855455881024546
13782708 43 18334852801322156671
13911852 28 18341328925036389847
14068700 675 17967817119872546220
14251764 30 18408324384651373335
14341114 176 18341896337745596665
14556957 393 14201672014331078159
14866123 147 18052822438480609625
15475509 84 17561085782673650601
15927050 60 17909550902266795654
17909252 39 18411136888388175626
20165401 70 18268431425076480615
20554085 129 11963677780771796964
21033650 10 16515960359952787197
21049683 271 18409733980772049300
21130935 74 18121508110373340667
21682296 61 18335423500314568547
21716022 299 18115325469378006340
23559900 14 18041839640580335797
2747138 104 18271522014627195210
2838139 119 9439111031746180370
3004659 81 17240202157766107423
3089732 80 18408606945991598375
329604 57 18335422323181942582
3421961 26 18413387665582724176
437815 12 18409167706054452495
465052 167 18342742918316983302
5104073 3 18202567272082715281
5309563 4 18340769256158687031
56633871 153 18272365412796536015
636775 8 18339648816231866638
6697151 62 18268123462771964573
7918774 8 18340494369830600646
7970288 3 18411419479692671743
8863177 126 18335421313485248339

> <PUBCHEM_SHAPE_MULTIPOLES>
541.01
17.81
4.38
1.26
12.67
2.74
0.14
-22.15
-2.95
-1.9
-0.75
-0.25
0.04
2.76

> <PUBCHEM_SHAPE_SELFOVERLAP>
1143.578

> <PUBCHEM_SHAPE_VOLUME>
304.2

> <PUBCHEM_COORDINATE_TYPE>
2
5
10

$$$$
