122363516
  -OEChem-03112309253D

 41 42  0     0  0  0  0  0  0999 V2000
   -0.8775    0.9533   -0.5845 O   0  0  0  0  0  0  0  0  0  0  0  0
    2.8286    2.4971    0.2900 O   0  0  0  0  0  0  0  0  0  0  0  0
    3.7767    0.1020    0.5044 O   0  0  0  0  0  0  0  0  0  0  0  0
    0.7683   -3.4846   -0.3218 O   0  0  0  0  0  0  0  0  0  0  0  0
    3.2771   -2.5705    0.3326 O   0  0  0  0  0  0  0  0  0  0  0  0
   -0.7617    2.2957   -0.0818 C   0  0  0  0  0  0  0  0  0  0  0  0
    0.5874    2.9255   -0.4458 C   0  0  0  0  0  0  0  0  0  0  0  0
    0.1957    0.1360   -0.3571 C   0  0  0  0  0  0  0  0  0  0  0  0
    1.4777    0.5952   -0.0525 C   0  0  0  0  0  0  0  0  0  0  0  0
    1.7307    2.0466   -0.0148 C   0  0  0  0  0  0  0  0  0  0  0  0
   -1.8788    3.0936   -0.7718 C   0  0  0  0  0  0  0  0  0  0  0  0
   -1.0249    2.3094    1.4335 C   0  0  0  0  0  0  0  0  0  0  0  0
   -0.0390   -1.2369   -0.4585 C   0  0  0  0  0  0  0  0  0  0  0  0
    2.5174   -0.3094    0.1810 C   0  0  0  0  0  0  0  0  0  0  0  0
   -1.3978   -1.7456   -0.8254 C   0  0  0  0  0  0  0  0  0  0  0  0
    0.9970   -2.1429   -0.2292 C   0  0  0  0  0  0  0  0  0  0  0  0
    2.2719   -1.6797    0.0943 C   0  0  0  0  0  0  0  0  0  0  0  0
   -2.3825   -1.6512    0.3118 C   0  0  0  0  0  0  0  0  0  0  0  0
   -3.5548   -0.9887    0.3415 C   0  0  0  0  0  0  0  0  0  0  0  0
   -4.4923   -0.9361    1.5141 C   0  0  0  0  0  0  0  0  0  0  0  0
   -4.0194   -0.2088   -0.8599 C   0  0  0  0  0  0  0  0  0  0  0  0
    0.6945    3.9074    0.0287 H   0  0  0  0  0  0  0  0  0  0  0  0
    0.6826    3.0517   -1.5314 H   0  0  0  0  0  0  0  0  0  0  0  0
   -1.8702    4.1460   -0.4689 H   0  0  0  0  0  0  0  0  0  0  0  0
   -1.7767    3.0447   -1.8621 H   0  0  0  0  0  0  0  0  0  0  0  0
   -2.8634    2.6757   -0.5354 H   0  0  0  0  0  0  0  0  0  0  0  0
   -0.2737    1.7362    1.9867 H   0  0  0  0  0  0  0  0  0  0  0  0
   -1.0294    3.3306    1.8289 H   0  0  0  0  0  0  0  0  0  0  0  0
   -1.9914    1.8450    1.6617 H   0  0  0  0  0  0  0  0  0  0  0  0
   -1.7253   -1.2436   -1.7398 H   0  0  0  0  0  0  0  0  0  0  0  0
   -1.3567   -2.8013   -1.1214 H   0  0  0  0  0  0  0  0  0  0  0  0
   -2.1003   -2.2045    1.2073 H   0  0  0  0  0  0  0  0  0  0  0  0
    3.8102    1.0653    0.6028 H   0  0  0  0  0  0  0  0  0  0  0  0
    1.6005   -3.9430   -0.5224 H   0  0  0  0  0  0  0  0  0  0  0  0
    2.8991   -3.4213    0.6085 H   0  0  0  0  0  0  0  0  0  0  0  0
   -4.6109    0.0945    1.8635 H   0  0  0  0  0  0  0  0  0  0  0  0
   -5.4754   -1.3280    1.2342 H   0  0  0  0  0  0  0  0  0  0  0  0
   -4.1205   -1.5330    2.3534 H   0  0  0  0  0  0  0  0  0  0  0  0
   -4.8031   -0.7667   -1.3832 H   0  0  0  0  0  0  0  0  0  0  0  0
   -4.4500    0.7461   -0.5375 H   0  0  0  0  0  0  0  0  0  0  0  0
   -3.2424    0.0457   -1.5806 H   0  0  0  0  0  0  0  0  0  0  0  0
  1  6  1  0  0  0  0
  1  8  1  0  0  0  0
  2 10  2  0  0  0  0
  3 14  1  0  0  0  0
  3 33  1  0  0  0  0
  4 16  1  0  0  0  0
  4 34  1  0  0  0  0
  5 17  1  0  0  0  0
  5 35  1  0  0  0  0
  6  7  1  0  0  0  0
  6 11  1  0  0  0  0
  6 12  1  0  0  0  0
  7 10  1  0  0  0  0
  7 22  1  0  0  0  0
  7 23  1  0  0  0  0
  8  9  2  0  0  0  0
  8 13  1  0  0  0  0
  9 10  1  0  0  0  0
  9 14  1  0  0  0  0
 11 24  1  0  0  0  0
 11 25  1  0  0  0  0
 11 26  1  0  0  0  0
 12 27  1  0  0  0  0
 12 28  1  0  0  0  0
 12 29  1  0  0  0  0
 13 15  1  0  0  0  0
 13 16  2  0  0  0  0
 14 17  2  0  0  0  0
 15 18  1  0  0  0  0
 15 30  1  0  0  0  0
 15 31  1  0  0  0  0
 16 17  1  0  0  0  0
 18 19  2  0  0  0  0
 18 32  1  0  0  0  0
 19 20  1  0  0  0  0
 19 21  1  0  0  0  0
 20 36  1  0  0  0  0
 20 37  1  0  0  0  0
 20 38  1  0  0  0  0
 21 39  1  0  0  0  0
 21 40  1  0  0  0  0
 21 41  1  0  0  0  0
M  END
> <PUBCHEM_COMPOUND_CID>
122363516

> <PUBCHEM_CONFORMER_RMSD>
0.6

> <PUBCHEM_CONFORMER_DIVERSEORDER>
5
15
20
13
18
7
14
17
6
19
2
9
10
4
16
3
1
12
8
11

> <PUBCHEM_MMFF94_PARTIAL_CHARGES>
23
1 -0.36
10 0.42
13 -0.14
14 0.08
15 0.28
16 0.08
17 0.08
18 -0.29
19 -0.28
2 -0.57
20 0.14
21 0.14
3 -0.53
32 0.15
33 0.45
34 0.45
35 0.45
4 -0.53
5 -0.53
6 0.28
7 0.06
8 0.08
9 0.09

> <PUBCHEM_EFFECTIVE_ROTOR_COUNT>
2.6

> <PUBCHEM_PHARMACOPHORE_FEATURES>
9
1 1 acceptor
1 2 acceptor
1 3 donor
1 4 donor
1 5 donor
3 19 20 21 hydrophobe
3 6 11 12 hydrophobe
6 1 6 7 8 9 10 rings
6 8 9 13 14 16 17 rings

> <PUBCHEM_HEAVY_ATOM_COUNT>
21

> <PUBCHEM_ATOM_DEF_STEREO_COUNT>
0

> <PUBCHEM_ATOM_UDEF_STEREO_COUNT>
0

> <PUBCHEM_BOND_DEF_STEREO_COUNT>
0

> <PUBCHEM_BOND_UDEF_STEREO_COUNT>
0

> <PUBCHEM_ISOTOPIC_ATOM_COUNT>
0

> <PUBCHEM_COMPONENT_COUNT>
1

> <PUBCHEM_CACTVS_TAUTO_COUNT>
173

> <PUBCHEM_CONFORMER_ID>
074B1E7C00000005

> <PUBCHEM_MMFF94_ENERGY>
59.5665

> <PUBCHEM_FEATURE_SELFOVERLAP>
45.71

> <PUBCHEM_SHAPE_FINGERPRINT>
10382601 240 18267602353719599139
10411042 1 18266737982951704270
104564 63 18341902844193801685
10493431 412 17763749084301701545
10688039 33 18041286491679006229
10967382 1 18338513174272728438
10980938 120 18193275414968857479
1100329 8 17836090348298069832
11578080 2 17200473456990971409
11640471 11 17488205797377993867
11680986 33 18196082249026835012
12035759 4 18044686236817929132
12553582 1 18410860949218192223
13132413 78 18053103105739646453
13140716 1 18049996990081701098
14178342 30 18196931076662722064
14223421 5 18338515231482980769
14790565 3 17903930198293854901
15042514 8 17760928446614642410
16945 1 18410567401014150358
17357779 13 18339631249081473919
18219364 16 18119806065750420719
193761 8 18338793412515350044
19591789 44 17904766926868406284
20600515 1 17765722703605867724
20739085 24 18263380216305876145
21197605 99 18054236432626548097
21524375 3 17622734536628482007
22182313 1 18199463269295438974
23184049 59 18341901847872249715
2334 1 17979632664808134630
23419403 2 18041819753953418871
23558518 356 18187933802766106897
238 59 17687982747876129703
2748010 2 18125997166170132790
350125 39 18411140238594515344
352729 6 17835796400656573710
394222 165 17171236532223164260
5282274 181 17695376697253522937
54173680 148 17833269722994388758
7832392 63 17908424997843588590
81228 2 18122070793041315307

> <PUBCHEM_SHAPE_MULTIPOLES>
402.82
5.91
4.09
0.99
3.7
1
-0.2
-2.12
-1.52
-1.3
0.3
0.81
0.19
0.26

> <PUBCHEM_SHAPE_SELFOVERLAP>
860.181

> <PUBCHEM_SHAPE_VOLUME>
224.8

> <PUBCHEM_COORDINATE_TYPE>
2
5
10

$$$$
