122363511
  -OEChem-03102308253D

 57 59  0     1  0  0  0  0  0999 V2000
    0.0601    0.3935   -0.3481 O   0  0  0  0  0  0  0  0  0  0  0  0
   -1.8362   -3.3569   -0.4425 O   0  0  0  0  0  0  0  0  0  0  0  0
    4.6598    1.9058    0.0479 O   0  0  0  0  0  0  0  0  0  0  0  0
    3.6746   -2.6811   -0.6160 O   0  0  0  0  0  0  0  0  0  0  0  0
    2.6416    3.5517    0.0882 O   0  0  0  0  0  0  0  0  0  0  0  0
   -5.9616    2.1269   -0.1539 O   0  0  0  0  0  0  0  0  0  0  0  0
   -0.8425   -3.7770    0.4950 C   0  0  0  0  0  0  0  0  0  0  0  0
    0.2037   -2.6522    0.6308 C   0  0  0  0  0  0  0  0  0  0  0  0
    0.8766   -2.2315   -0.6890 C   0  0  0  0  0  0  0  0  0  0  0  0
    1.8584   -1.1213   -0.4865 C   0  0  0  0  0  0  0  0  0  0  0  0
    1.4155    0.1908   -0.3140 C   0  0  0  0  0  0  0  0  0  0  0  0
   -0.3454    1.5817    0.3491 C   0  0  1  0  0  0  0  0  0  0  0  0
    2.3449    1.2214   -0.1466 C   0  0  0  0  0  0  0  0  0  0  0  0
    0.3777    2.8112   -0.1972 C   0  0  0  0  0  0  0  0  0  0  0  0
   -1.5326   -4.0961    1.8231 C   0  0  0  0  0  0  0  0  0  0  0  0
   -0.1726   -5.0376   -0.0621 C   0  0  0  0  0  0  0  0  0  0  0  0
    1.8639    2.6147   -0.0476 C   0  0  0  0  0  0  0  0  0  0  0  0
    3.2243   -1.4042   -0.4592 C   0  0  0  0  0  0  0  0  0  0  0  0
    3.7131    0.9402   -0.1172 C   0  0  0  0  0  0  0  0  0  0  0  0
   -1.8466    1.7269    0.2150 C   0  0  0  0  0  0  0  0  0  0  0  0
    4.1488   -0.3764   -0.2701 C   0  0  0  0  0  0  0  0  0  0  0  0
   -2.5039   -2.1887    0.0057 C   0  0  0  0  0  0  0  0  0  0  0  0
   -2.4192    1.9144   -1.0431 C   0  0  0  0  0  0  0  0  0  0  0  0
   -2.6571    1.6739    1.3491 C   0  0  0  0  0  0  0  0  0  0  0  0
   -3.5417   -1.7893   -1.0216 C   0  0  0  0  0  0  0  0  0  0  0  0
   -3.8020    2.0484   -1.1671 C   0  0  0  0  0  0  0  0  0  0  0  0
   -4.0399    1.8079    1.2251 C   0  0  0  0  0  0  0  0  0  0  0  0
   -4.6123    1.9951   -0.0331 C   0  0  0  0  0  0  0  0  0  0  0  0
    5.0507    2.2078    1.3860 C   0  0  0  0  0  0  0  0  0  0  0  0
    0.9935   -3.0103    1.3084 H   0  0  0  0  0  0  0  0  0  0  0  0
   -0.2036   -1.7808    1.1549 H   0  0  0  0  0  0  0  0  0  0  0  0
    0.1231   -1.9130   -1.4203 H   0  0  0  0  0  0  0  0  0  0  0  0
    1.3687   -3.0900   -1.1570 H   0  0  0  0  0  0  0  0  0  0  0  0
   -0.0943    1.4460    1.4115 H   0  0  0  0  0  0  0  0  0  0  0  0
    0.0806    3.7070    0.3597 H   0  0  0  0  0  0  0  0  0  0  0  0
    0.1860    2.9763   -1.2633 H   0  0  0  0  0  0  0  0  0  0  0  0
   -2.4458   -4.6820    1.6692 H   0  0  0  0  0  0  0  0  0  0  0  0
   -0.8653   -4.6705    2.4761 H   0  0  0  0  0  0  0  0  0  0  0  0
   -1.8036   -3.1968    2.3862 H   0  0  0  0  0  0  0  0  0  0  0  0
   -0.8869   -5.8698   -0.0788 H   0  0  0  0  0  0  0  0  0  0  0  0
    0.6885   -5.3434    0.5408 H   0  0  0  0  0  0  0  0  0  0  0  0
    0.1451   -4.9079   -1.1017 H   0  0  0  0  0  0  0  0  0  0  0  0
    5.2140   -0.5956   -0.2494 H   0  0  0  0  0  0  0  0  0  0  0  0
   -3.0434   -2.3605    0.9406 H   0  0  0  0  0  0  0  0  0  0  0  0
   -1.8383   -1.3355    0.1202 H   0  0  0  0  0  0  0  0  0  0  0  0
   -1.8067    1.9456   -1.9399 H   0  0  0  0  0  0  0  0  0  0  0  0
   -2.2261    1.5276    2.3358 H   0  0  0  0  0  0  0  0  0  0  0  0
    4.6460   -2.6840   -0.5681 H   0  0  0  0  0  0  0  0  0  0  0  0
   -3.0623   -1.5209   -1.9688 H   0  0  0  0  0  0  0  0  0  0  0  0
   -4.2172   -2.6251   -1.2328 H   0  0  0  0  0  0  0  0  0  0  0  0
   -4.1366   -0.9428   -0.6729 H   0  0  0  0  0  0  0  0  0  0  0  0
   -4.2360    2.1903   -2.1532 H   0  0  0  0  0  0  0  0  0  0  0  0
   -4.6661    1.7651    2.1121 H   0  0  0  0  0  0  0  0  0  0  0  0
    5.6626    3.1137    1.3682 H   0  0  0  0  0  0  0  0  0  0  0  0
    5.6508    1.3882    1.7935 H   0  0  0  0  0  0  0  0  0  0  0  0
    4.1808    2.3842    2.0268 H   0  0  0  0  0  0  0  0  0  0  0  0
   -6.1834    2.2475   -1.0932 H   0  0  0  0  0  0  0  0  0  0  0  0
  1 11  1  0  0  0  0
  1 12  1  0  0  0  0
  2  7  1  0  0  0  0
  2 22  1  0  0  0  0
  3 19  1  0  0  0  0
  3 29  1  0  0  0  0
  4 18  1  0  0  0  0
  4 48  1  0  0  0  0
  5 17  2  0  0  0  0
  6 28  1  0  0  0  0
  6 57  1  0  0  0  0
  7  8  1  0  0  0  0
  7 15  1  0  0  0  0
  7 16  1  0  0  0  0
  8  9  1  0  0  0  0
  8 30  1  0  0  0  0
  8 31  1  0  0  0  0
  9 10  1  0  0  0  0
  9 32  1  0  0  0  0
  9 33  1  0  0  0  0
 10 11  1  0  0  0  0
 10 18  2  0  0  0  0
 11 13  2  0  0  0  0
 12 14  1  0  0  0  0
 12 20  1  0  0  0  0
 12 34  1  0  0  0  0
 13 17  1  0  0  0  0
 13 19  1  0  0  0  0
 14 17  1  0  0  0  0
 14 35  1  0  0  0  0
 14 36  1  0  0  0  0
 15 37  1  0  0  0  0
 15 38  1  0  0  0  0
 15 39  1  0  0  0  0
 16 40  1  0  0  0  0
 16 41  1  0  0  0  0
 16 42  1  0  0  0  0
 18 21  1  0  0  0  0
 19 21  2  0  0  0  0
 20 23  2  0  0  0  0
 20 24  1  0  0  0  0
 21 43  1  0  0  0  0
 22 25  1  0  0  0  0
 22 44  1  0  0  0  0
 22 45  1  0  0  0  0
 23 26  1  0  0  0  0
 23 46  1  0  0  0  0
 24 27  2  0  0  0  0
 24 47  1  0  0  0  0
 25 49  1  0  0  0  0
 25 50  1  0  0  0  0
 25 51  1  0  0  0  0
 26 28  2  0  0  0  0
 26 52  1  0  0  0  0
 27 28  1  0  0  0  0
 27 53  1  0  0  0  0
 29 54  1  0  0  0  0
 29 55  1  0  0  0  0
 29 56  1  0  0  0  0
M  END
> <PUBCHEM_COMPOUND_CID>
122363511

> <PUBCHEM_CONFORMER_RMSD>
1

> <PUBCHEM_CONFORMER_DIVERSEORDER>
1
60
51
61
27
42
34
41
38
67
62
21
53
28
43
57
66
65
44
35
63
59
47
26
39
10
2
31
33
36
29
32
19
49
56
15
22
12
55
68
17
24
45
52
14
25
13
69
18
23
11
48
16
40
64
46
30
54
20
8
5
37
4
3
58
9
50
7
6

> <PUBCHEM_MMFF94_PARTIAL_CHARGES>
32
1 -0.36
10 -0.14
11 0.08
12 0.42
13 0.09
14 0.06
17 0.42
18 0.08
19 0.08
2 -0.56
20 -0.14
21 -0.15
22 0.28
23 -0.15
24 -0.15
26 -0.15
27 -0.15
28 0.08
29 0.28
3 -0.36
4 -0.53
43 0.15
46 0.15
47 0.15
48 0.45
5 -0.57
52 0.15
53 0.15
57 0.45
6 -0.53
7 0.28
9 0.14

> <PUBCHEM_EFFECTIVE_ROTOR_COUNT>
7.6

> <PUBCHEM_PHARMACOPHORE_FEATURES>
10
1 1 acceptor
1 2 acceptor
1 3 acceptor
1 4 donor
1 5 acceptor
1 6 donor
3 7 15 16 hydrophobe
6 1 11 12 13 14 17 rings
6 10 11 13 18 19 21 rings
6 20 23 24 26 27 28 rings

> <PUBCHEM_HEAVY_ATOM_COUNT>
29

> <PUBCHEM_ATOM_DEF_STEREO_COUNT>
0

> <PUBCHEM_ATOM_UDEF_STEREO_COUNT>
1

> <PUBCHEM_BOND_DEF_STEREO_COUNT>
0

> <PUBCHEM_BOND_UDEF_STEREO_COUNT>
0

> <PUBCHEM_ISOTOPIC_ATOM_COUNT>
0

> <PUBCHEM_COMPONENT_COUNT>
1

> <PUBCHEM_CACTVS_TAUTO_COUNT>
18

> <PUBCHEM_CONFORMER_ID>
074B1E7700000001

> <PUBCHEM_MMFF94_ENERGY>
99.056

> <PUBCHEM_FEATURE_SELFOVERLAP>
50.788

> <PUBCHEM_SHAPE_FINGERPRINT>
10074138 170 18121467367648452232
10190206 1 17179708342403885844
10675989 125 18049715222810564689
1100329 8 18338796689633639874
11135609 187 18339067221608946837
11513181 2 18130790091869508422
11578080 2 16987700458913603482
12236239 1 17632573808693724373
12293681 4 18049714419276880791
12422481 6 18047508679509448411
12788726 201 18195792184390352235
13140716 1 18340206284899000346
13540713 4 18128827507512412596
1361 2 18337110069214817633
13692114 37 18198606925551147591
138480 1 17545320779027775383
13911987 19 18046371668052828988
140371 6 18047471415529363470
14681490 219 18053931025791299751
16112460 7 18270971136977465329
17138139 8 17843089698150340189
19427546 62 18409731776493886237
19591789 44 18122350081710821790
19930381 70 17977105656891923169
20028762 73 18127968607419523351
20511986 3 17630307667984237745
21033648 29 18263071150354371732
21197605 99 18341339959361650687
21796203 349 17474701367331288331
22182313 1 18058462066043306260
23558518 356 17899698148268581864
23559900 14 18343299258859191008
3298306 158 18044938961647251221
338550 245 18335427897812206941
463206 1 16679788433634730397
469060 322 17313101977953674071
5309563 4 17617942431052076267
653340 110 18124872610698706712
9777508 108 18339359798389750304

> <PUBCHEM_SHAPE_MULTIPOLES>
561.59
9.05
6.22
1.13
0.93
7.09
0.31
-7.82
0.25
1.6
1.03
0.54
0.17
1.02

> <PUBCHEM_SHAPE_SELFOVERLAP>
1201.325

> <PUBCHEM_SHAPE_VOLUME>
311.8

> <PUBCHEM_COORDINATE_TYPE>
2
5
10

$$$$
