12719326
  -OEChem-03112309283D

 26 26  0     0  0  0  0  0  0999 V2000
   -3.0853   -0.1088    0.0962 O   0  0  0  0  0  0  0  0  0  0  0  0
    4.0964    1.7191   -0.1695 O   0  0  0  0  0  0  0  0  0  0  0  0
   -1.1274    0.3804   -1.0286 O   0  0  0  0  0  0  0  0  0  0  0  0
    0.9791   -0.9804    0.3020 C   0  0  0  0  0  0  0  0  0  0  0  0
    2.0393   -1.2814   -0.5528 C   0  0  0  0  0  0  0  0  0  0  0  0
    0.9664    0.2281    0.9986 C   0  0  0  0  0  0  0  0  0  0  0  0
   -0.1139   -1.9257    0.4674 C   0  0  0  0  0  0  0  0  0  0  0  0
    3.0869   -0.3742   -0.7110 C   0  0  0  0  0  0  0  0  0  0  0  0
    2.0139    1.1355    0.8404 C   0  0  0  0  0  0  0  0  0  0  0  0
    3.0742    0.8344   -0.0145 C   0  0  0  0  0  0  0  0  0  0  0  0
   -3.6487    1.1403   -0.3179 C   0  0  0  0  0  0  0  0  0  0  0  0
   -1.4118   -1.6748    0.1859 C   0  0  0  0  0  0  0  0  0  0  0  0
   -1.8180   -0.3501   -0.3357 C   0  0  0  0  0  0  0  0  0  0  0  0
   -5.0512    1.2576    0.2395 C   0  0  0  0  0  0  0  0  0  0  0  0
    2.0631   -2.2190   -1.1031 H   0  0  0  0  0  0  0  0  0  0  0  0
    0.1575    0.4784    1.6812 H   0  0  0  0  0  0  0  0  0  0  0  0
    0.1603   -2.9119    0.8331 H   0  0  0  0  0  0  0  0  0  0  0  0
    3.9071   -0.6206   -1.3801 H   0  0  0  0  0  0  0  0  0  0  0  0
    1.9999    2.0741    1.3878 H   0  0  0  0  0  0  0  0  0  0  0  0
   -3.0300    1.9623    0.0592 H   0  0  0  0  0  0  0  0  0  0  0  0
   -3.6804    1.1816   -1.4124 H   0  0  0  0  0  0  0  0  0  0  0  0
   -2.1746   -2.4247    0.3624 H   0  0  0  0  0  0  0  0  0  0  0  0
   -5.5127    2.2033   -0.0584 H   0  0  0  0  0  0  0  0  0  0  0  0
   -5.6770    0.4317   -0.1146 H   0  0  0  0  0  0  0  0  0  0  0  0
   -5.0374    1.1997    1.3329 H   0  0  0  0  0  0  0  0  0  0  0  0
    4.7416    1.3488   -0.7962 H   0  0  0  0  0  0  0  0  0  0  0  0
  1 11  1  0  0  0  0
  1 13  1  0  0  0  0
  2 10  1  0  0  0  0
  2 26  1  0  0  0  0
  3 13  2  0  0  0  0
  4  5  2  0  0  0  0
  4  6  1  0  0  0  0
  4  7  1  0  0  0  0
  5  8  1  0  0  0  0
  5 15  1  0  0  0  0
  6  9  2  0  0  0  0
  6 16  1  0  0  0  0
  7 12  2  0  0  0  0
  7 17  1  0  0  0  0
  8 10  2  0  0  0  0
  8 18  1  0  0  0  0
  9 10  1  0  0  0  0
  9 19  1  0  0  0  0
 11 14  1  0  0  0  0
 11 20  1  0  0  0  0
 11 21  1  0  0  0  0
 12 13  1  0  0  0  0
 12 22  1  0  0  0  0
 14 23  1  0  0  0  0
 14 24  1  0  0  0  0
 14 25  1  0  0  0  0
M  END
> <PUBCHEM_COMPOUND_CID>
12719326

> <PUBCHEM_CONFORMER_RMSD>
0.6

> <PUBCHEM_CONFORMER_DIVERSEORDER>
1
12
20
4
17
11
23
18
19
21
2
24
14
3
7
22
13
5
6
8
15
16
10
9

> <PUBCHEM_MMFF94_PARTIAL_CHARGES>
20
1 -0.43
10 0.08
11 0.28
12 -0.14
13 0.71
15 0.15
16 0.15
17 0.15
18 0.15
19 0.15
2 -0.53
22 0.15
26 0.45
3 -0.57
4 0.03
5 -0.15
6 -0.15
7 -0.18
8 -0.15
9 -0.15

> <PUBCHEM_EFFECTIVE_ROTOR_COUNT>
4

> <PUBCHEM_PHARMACOPHORE_FEATURES>
3
1 2 donor
1 3 acceptor
6 4 5 6 8 9 10 rings

> <PUBCHEM_HEAVY_ATOM_COUNT>
14

> <PUBCHEM_ATOM_DEF_STEREO_COUNT>
0

> <PUBCHEM_ATOM_UDEF_STEREO_COUNT>
0

> <PUBCHEM_BOND_DEF_STEREO_COUNT>
1

> <PUBCHEM_BOND_UDEF_STEREO_COUNT>
0

> <PUBCHEM_ISOTOPIC_ATOM_COUNT>
0

> <PUBCHEM_COMPONENT_COUNT>
1

> <PUBCHEM_CACTVS_TAUTO_COUNT>
2

> <PUBCHEM_CONFORMER_ID>
00C214DE00000001

> <PUBCHEM_MMFF94_ENERGY>
35.4605

> <PUBCHEM_FEATURE_SELFOVERLAP>
15.223

> <PUBCHEM_SHAPE_FINGERPRINT>
10498660 4 18334006169211474829
10608611 8 18340485689611628192
11031198 65 18130790074673183910
11471102 20 18272651216688408206
11543360 7 16988268868044406973
122479 349 18334016128781418723
12251169 10 12035453852103017888
12346645 44 18335417950583319219
12654215 9 18272936029287257026
13764800 53 18186809097123735027
14123255 52 18335416855287790781
14252887 29 9799395737834509103
15219456 202 18339930415070999150
15775835 57 18259700107742429402
15848700 24 10519981552259062675
177051 138 9367344833980152661
17834072 14 9655574080845661539
17834072 32 18263647432059924300
18186145 218 18411134697543046999
20645477 70 17845941740317001070
20820808 20 18412825763696281866
21501502 16 18337941389730419314
22926399 65 18339081592009823720
231179 274 18334290929463366837
23402539 116 18340758325936092284
23402655 69 18060700584989923701
23500284 214 18261394476714725059
23557571 272 18267036135507315382
23559900 14 18342740724522215238
25 1 18342457032292632810
251288 83 11746944178333247016
276578 36 17603302631090980554
4047638 21 18408888421262987006
4990 188 17989208118680624815
633830 44 18270679758449527261
6442390 28 18261403264614114419
76465 3 10159712261030295740
81228 2 17753046386851869523

> <PUBCHEM_SHAPE_MULTIPOLES>
270.51
7.67
1.85
0.89
6.71
0.3
0.03
-5.11
-0.7
-0.32
0.16
-0.21
-0.03
0.27

> <PUBCHEM_SHAPE_SELFOVERLAP>
557.587

> <PUBCHEM_SHAPE_VOLUME>
155.5

> <PUBCHEM_COORDINATE_TYPE>
2
5
10

$$$$
