12986068
  -OEChem-03102308393D

 49 51  0     1  0  0  0  0  0999 V2000
   -1.8262   -1.0755   -0.6964 O   0  0  0  0  0  0  0  0  0  0  0  0
   -2.1049   -3.2727    1.0264 O   0  0  0  0  0  0  0  0  0  0  0  0
   -4.7249    1.6343    1.8086 O   0  0  0  0  0  0  0  0  0  0  0  0
   -0.7022    3.5542    0.0966 O   0  0  0  0  0  0  0  0  0  0  0  0
    0.1092    1.2756   -2.3256 O   0  0  0  0  0  0  0  0  0  0  0  0
    7.2516   -1.1577    1.4123 O   0  0  0  0  0  0  0  0  0  0  0  0
   -3.1065   -1.7389   -0.5251 C   0  0  1  0  0  0  0  0  0  0  0  0
   -2.8627   -3.2000   -0.1849 C   0  0  0  0  0  0  0  0  0  0  0  0
   -3.9026   -1.0050    0.5653 C   0  0  0  0  0  0  0  0  0  0  0  0
   -3.2206    0.3071    0.5120 C   0  0  0  0  0  0  0  0  0  0  0  0
   -2.0371    0.1850   -0.1994 C   0  0  0  0  0  0  0  0  0  0  0  0
   -2.0683   -3.8998   -1.2906 C   0  0  0  0  0  0  0  0  0  0  0  0
   -4.1845   -3.9298    0.0622 C   0  0  0  0  0  0  0  0  0  0  0  0
   -1.1649    1.2447   -0.3558 C   0  0  0  0  0  0  0  0  0  0  0  0
   -3.5769    1.5092    1.0955 C   0  0  0  0  0  0  0  0  0  0  0  0
   -1.5172    2.4670    0.2195 C   0  0  0  0  0  0  0  0  0  0  0  0
   -2.7161    2.5990    0.9395 C   0  0  0  0  0  0  0  0  0  0  0  0
    0.0759    1.0876   -1.1007 C   0  0  0  0  0  0  0  0  0  0  0  0
    1.3105    0.6618   -0.3583 C   0  0  0  0  0  0  0  0  0  0  0  0
   -0.9175    4.3991   -1.0308 C   0  0  0  0  0  0  0  0  0  0  0  0
    2.4687    0.4784   -1.0092 C   0  0  0  0  0  0  0  0  0  0  0  0
    3.7260    0.0488   -0.3722 C   0  0  0  0  0  0  0  0  0  0  0  0
    3.8828    0.2061    0.9952 C   0  0  0  0  0  0  0  0  0  0  0  0
    4.7270   -0.5048   -1.1539 C   0  0  0  0  0  0  0  0  0  0  0  0
    5.0732   -0.2010    1.5975 C   0  0  0  0  0  0  0  0  0  0  0  0
    5.9175   -0.9122   -0.5518 C   0  0  0  0  0  0  0  0  0  0  0  0
    6.0906   -0.7603    0.8241 C   0  0  0  0  0  0  0  0  0  0  0  0
   -3.6369   -1.6569   -1.4852 H   0  0  0  0  0  0  0  0  0  0  0  0
   -3.7797   -1.4350    1.5643 H   0  0  0  0  0  0  0  0  0  0  0  0
   -4.9659   -0.9470    0.3151 H   0  0  0  0  0  0  0  0  0  0  0  0
   -1.8999   -4.9542   -1.0424 H   0  0  0  0  0  0  0  0  0  0  0  0
   -2.5896   -3.8530   -2.2523 H   0  0  0  0  0  0  0  0  0  0  0  0
   -1.0738   -3.4554   -1.4095 H   0  0  0  0  0  0  0  0  0  0  0  0
   -4.7090   -3.5447    0.9430 H   0  0  0  0  0  0  0  0  0  0  0  0
   -4.0073   -4.9929    0.2650 H   0  0  0  0  0  0  0  0  0  0  0  0
   -4.8514   -3.8569   -0.8033 H   0  0  0  0  0  0  0  0  0  0  0  0
   -1.9517   -4.2112    1.2301 H   0  0  0  0  0  0  0  0  0  0  0  0
   -2.9675    3.5594    1.3843 H   0  0  0  0  0  0  0  0  0  0  0  0
   -4.7941    2.5474    2.1364 H   0  0  0  0  0  0  0  0  0  0  0  0
    1.1878    0.4957    0.7057 H   0  0  0  0  0  0  0  0  0  0  0  0
   -1.8990    4.8790   -0.9631 H   0  0  0  0  0  0  0  0  0  0  0  0
   -0.8412    3.8375   -1.9666 H   0  0  0  0  0  0  0  0  0  0  0  0
   -0.1486    5.1766   -1.0275 H   0  0  0  0  0  0  0  0  0  0  0  0
    2.5224    0.6354   -2.0839 H   0  0  0  0  0  0  0  0  0  0  0  0
    3.1278    0.6555    1.6325 H   0  0  0  0  0  0  0  0  0  0  0  0
    4.6065   -0.6310   -2.2266 H   0  0  0  0  0  0  0  0  0  0  0  0
    5.2046   -0.0761    2.6689 H   0  0  0  0  0  0  0  0  0  0  0  0
    6.7022   -1.3468   -1.1652 H   0  0  0  0  0  0  0  0  0  0  0  0
    7.8422   -1.5206    0.7300 H   0  0  0  0  0  0  0  0  0  0  0  0
  1  7  1  0  0  0  0
  1 11  1  0  0  0  0
  2  8  1  0  0  0  0
  2 37  1  0  0  0  0
  3 15  1  0  0  0  0
  3 39  1  0  0  0  0
  4 16  1  0  0  0  0
  4 20  1  0  0  0  0
  5 18  2  0  0  0  0
  6 27  1  0  0  0  0
  6 49  1  0  0  0  0
  7  8  1  0  0  0  0
  7  9  1  0  0  0  0
  7 28  1  0  0  0  0
  8 12  1  0  0  0  0
  8 13  1  0  0  0  0
  9 10  1  0  0  0  0
  9 29  1  0  0  0  0
  9 30  1  0  0  0  0
 10 11  2  0  0  0  0
 10 15  1  0  0  0  0
 11 14  1  0  0  0  0
 12 31  1  0  0  0  0
 12 32  1  0  0  0  0
 12 33  1  0  0  0  0
 13 34  1  0  0  0  0
 13 35  1  0  0  0  0
 13 36  1  0  0  0  0
 14 16  2  0  0  0  0
 14 18  1  0  0  0  0
 15 17  2  0  0  0  0
 16 17  1  0  0  0  0
 17 38  1  0  0  0  0
 18 19  1  0  0  0  0
 19 21  2  0  0  0  0
 19 40  1  0  0  0  0
 20 41  1  0  0  0  0
 20 42  1  0  0  0  0
 20 43  1  0  0  0  0
 21 22  1  0  0  0  0
 21 44  1  0  0  0  0
 22 23  2  0  0  0  0
 22 24  1  0  0  0  0
 23 25  1  0  0  0  0
 23 45  1  0  0  0  0
 24 26  2  0  0  0  0
 24 46  1  0  0  0  0
 25 27  2  0  0  0  0
 25 47  1  0  0  0  0
 26 27  1  0  0  0  0
 26 48  1  0  0  0  0
M  END
> <PUBCHEM_COMPOUND_CID>
12986068

> <PUBCHEM_CONFORMER_RMSD>
0.8

> <PUBCHEM_CONFORMER_DIVERSEORDER>
2
81
57
39
41
24
12
42
73
61
15
20
16
65
19
69
77
13
72
36
40
26
8
43
75
46
45
23
63
28
76
32
6
52
22
68
18
70
67
33
37
55
34
62
71
9
35
60
44
64
54
80
31
10
78
25
47
53
11
48
5
49
58
74
7
17
14
79
30
21
38
4
1
3
50
66
29
27
56
51
59

> <PUBCHEM_MMFF94_PARTIAL_CHARGES>
35
1 -0.36
10 -0.14
11 0.08
14 0.09
15 0.08
16 0.08
17 -0.15
18 0.47
19 -0.14
2 -0.68
20 0.28
21 -0.18
22 0.03
23 -0.15
24 -0.15
25 -0.15
26 -0.15
27 0.08
3 -0.53
37 0.4
38 0.15
39 0.45
4 -0.36
40 0.15
44 0.15
45 0.15
46 0.15
47 0.15
48 0.15
49 0.45
5 -0.57
6 -0.53
7 0.28
8 0.28
9 0.14

> <PUBCHEM_EFFECTIVE_ROTOR_COUNT>
5.6

> <PUBCHEM_PHARMACOPHORE_FEATURES>
11
1 1 acceptor
1 2 acceptor
1 2 donor
1 3 donor
1 4 acceptor
1 5 acceptor
1 6 donor
3 8 12 13 hydrophobe
5 1 7 9 10 11 rings
6 10 11 14 15 16 17 rings
6 22 23 24 25 26 27 rings

> <PUBCHEM_HEAVY_ATOM_COUNT>
27

> <PUBCHEM_ATOM_DEF_STEREO_COUNT>
0

> <PUBCHEM_ATOM_UDEF_STEREO_COUNT>
1

> <PUBCHEM_BOND_DEF_STEREO_COUNT>
1

> <PUBCHEM_BOND_UDEF_STEREO_COUNT>
0

> <PUBCHEM_ISOTOPIC_ATOM_COUNT>
0

> <PUBCHEM_COMPONENT_COUNT>
1

> <PUBCHEM_CACTVS_TAUTO_COUNT>
10

> <PUBCHEM_CONFORMER_ID>
00C626D400000002

> <PUBCHEM_MMFF94_ENERGY>
100.9545

> <PUBCHEM_FEATURE_SELFOVERLAP>
55.928

> <PUBCHEM_SHAPE_FINGERPRINT>
10319926 262 18202569449915769094
10928967 22 17822284640314049306
10930396 42 18269252630373862800
11370993 144 17489031453115957734
11720765 8 16337473588289719015
12523318 42 18343298163225409642
12616971 3 17749114379115544446
12633257 1 18343309145378183872
13004483 165 18198622340146874055
13140716 1 18342464784745954053
13583140 156 17346875654959178926
13994607 96 12031785907145923295
14068700 675 17986096621286661703
14705955 166 17489593311873666209
14844126 61 18412823620581831011
14856354 85 18411983555639051462
14866123 147 18411708712081874379
14910302 57 18270410365184418822
15042514 8 18411708690152707319
15230672 131 17833280714591673174
15250474 111 18334293159137319674
15348495 7 18131345303013677832
15537594 2 17967534537047740482
15950262 2 15193898722386807617
16728300 4 17750518382428743417
16994733 274 15050898469566895899
17780758 139 18411132537459366058
17980427 26 16971095273354966332
1813 80 17531545199690892436
19377110 9 18113339709388190508
20600515 1 18201454574863427717
21033648 29 18054234228337893912
21421861 104 17762915655162710417
21650355 55 18412265042978878901
22956985 138 17834383897724818600
23366157 5 17757842499759323725
23559900 14 18268138932606023425
312425 54 18343015554894668082
3383291 50 18342460370237316867
3882209 13 17195418129807348814
4409770 3 18188200984582754557
463206 1 18048314745270169842
484985 159 18261940878170133383
5104073 3 18271805761467487120
5364581 5 18058998614643245168
5486654 36 18188220921582974403
563151 74 15841286847667484255
56638632 10 16182720095963734305
57527585 21 13944116496739886895
5924683 9 18342735243089079686
602551 16 18412827971821018742
9896288 288 18266190430893227161
9953998 17 18342168952431629496
9981440 41 17903638475989269617

> <PUBCHEM_SHAPE_MULTIPOLES>
520.43
12.87
4.79
1.5
25.54
0.6
0.05
7.81
-5.61
-8.2
0.82
0.64
-0.26
-1.4

> <PUBCHEM_SHAPE_SELFOVERLAP>
1130.227

> <PUBCHEM_SHAPE_VOLUME>
286.1

> <PUBCHEM_COORDINATE_TYPE>
2
5
10

$$$$
