132515678
  -OEChem-03112307462D

 30 31  0     0  0  0  0  0  0999 V2000
    4.6316   -1.1205    0.0000 O   0  0  0  0  0  0  0  0  0  0  0  0
    3.0989    2.3219    0.0000 O   0  0  0  0  0  0  0  0  0  0  0  0
    2.2522   -2.3465    0.0000 O   0  0  0  0  0  0  0  0  0  0  0  0
    8.1054    2.3219    0.0000 O   0  0  0  0  0  0  0  0  0  0  0  0
    5.6021    1.3740    0.0000 N   0  0  0  0  0  0  0  0  0  0  0  0
    5.6021    0.3740    0.0000 C   0  0  0  0  0  0  0  0  0  0  0  0
    4.7931    1.9618    0.0000 C   0  0  0  0  0  0  0  0  0  0  0  0
    6.4112    1.9618    0.0000 C   0  0  0  0  0  0  0  0  0  0  0  0
    4.7361   -0.1260    0.0000 C   0  0  0  0  0  0  0  0  0  0  0  0
    5.1021    2.9129    0.0000 C   0  0  0  0  0  0  0  0  0  0  0  0
    6.1021    2.9129    0.0000 C   0  0  0  0  0  0  0  0  0  0  0  0
    3.8421    1.6528    0.0000 C   0  0  0  0  0  0  0  0  0  0  0  0
    3.8226    0.2808    0.0000 C   0  0  0  0  0  0  0  0  0  0  0  0
    3.6534   -1.3284    0.0000 C   0  0  0  0  0  0  0  0  0  0  0  0
    3.1534   -0.4624    0.0000 C   0  0  0  0  0  0  0  0  0  0  0  0
    7.3622    1.6528    0.0000 C   0  0  0  0  0  0  0  0  0  0  0  0
    3.2467   -2.2420    0.0000 C   0  0  0  0  0  0  0  0  0  0  0  0
    5.8142   -0.2086    0.0000 H   0  0  0  0  0  0  0  0  0  0  0  0
    6.2127    0.4817    0.0000 H   0  0  0  0  0  0  0  0  0  0  0  0
    4.7377    3.4145    0.0000 H   0  0  0  0  0  0  0  0  0  0  0  0
    6.4666    3.4145    0.0000 H   0  0  0  0  0  0  0  0  0  0  0  0
    3.3535    1.2711    0.0000 H   0  0  0  0  0  0  0  0  0  0  0  0
    4.1331    1.1054    0.0000 H   0  0  0  0  0  0  0  0  0  0  0  0
    3.6937    0.8872    0.0000 H   0  0  0  0  0  0  0  0  0  0  0  0
    2.5368   -0.3976    0.0000 H   0  0  0  0  0  0  0  0  0  0  0  0
    7.4911    1.0463    0.0000 H   0  0  0  0  0  0  0  0  0  0  0  0
    3.2034   -2.8604    0.0000 H   0  0  0  0  0  0  0  0  0  0  0  0
    3.8483   -2.3919    0.0000 H   0  0  0  0  0  0  0  0  0  0  0  0
    2.5093    2.1303    0.0000 H   0  0  0  0  0  0  0  0  0  0  0  0
    2.0000   -2.9129    0.0000 H   0  0  0  0  0  0  0  0  0  0  0  0
  1  9  1  0  0  0  0
  1 14  1  0  0  0  0
  2 12  1  0  0  0  0
  2 29  1  0  0  0  0
  3 17  1  0  0  0  0
  3 30  1  0  0  0  0
  4 16  2  0  0  0  0
  5  6  1  0  0  0  0
  5  7  1  0  0  0  0
  5  8  1  0  0  0  0
  6  9  1  0  0  0  0
  6 18  1  0  0  0  0
  6 19  1  0  0  0  0
  7 10  2  0  0  0  0
  7 12  1  0  0  0  0
  8 11  2  0  0  0  0
  8 16  1  0  0  0  0
  9 13  2  0  0  0  0
 10 11  1  0  0  0  0
 10 20  1  0  0  0  0
 11 21  1  0  0  0  0
 12 22  1  0  0  0  0
 12 23  1  0  0  0  0
 13 15  1  0  0  0  0
 13 24  1  0  0  0  0
 14 15  2  0  0  0  0
 14 17  1  0  0  0  0
 15 25  1  0  0  0  0
 16 26  1  0  0  0  0
 17 27  1  0  0  0  0
 17 28  1  0  0  0  0
M  END
> <PUBCHEM_COMPOUND_CID>
132515678

> <PUBCHEM_COMPOUND_CANONICALIZED>
1

> <PUBCHEM_CACTVS_COMPLEXITY>
261

> <PUBCHEM_CACTVS_HBOND_ACCEPTOR>
4

> <PUBCHEM_CACTVS_HBOND_DONOR>
2

> <PUBCHEM_CACTVS_ROTATABLE_BOND>
5

> <PUBCHEM_CACTVS_SUBSKEYS>
AAADccByOAAAAAAAAAAAAAAAAAAAAWJAAAAAAAAAAAAAAAAB4AAAHgAACAAACAzhlgYwhJMMFkCoAaxyxAaCiCAnIiAI2CH+bNgPNvLEtbuHWSjkwBHb+YeYfQcQAAAAAAAAAAAAAAAAAAAAAAAAAAAAAA==

> <PUBCHEM_IUPAC_OPENEYE_NAME>
5-(hydroxymethyl)-1-[[5-(hydroxymethyl)-2-furyl]methyl]pyrrole-2-carbaldehyde

> <PUBCHEM_IUPAC_CAS_NAME>
5-(hydroxymethyl)-1-[[5-(hydroxymethyl)-2-furanyl]methyl]-2-pyrrolecarboxaldehyde

> <PUBCHEM_IUPAC_NAME_MARKUP>
5-(hydroxymethyl)-1-[[5-(hydroxymethyl)furan-2-yl]methyl]pyrrole-2-carbaldehyde

> <PUBCHEM_IUPAC_NAME>
5-(hydroxymethyl)-1-[[5-(hydroxymethyl)furan-2-yl]methyl]pyrrole-2-carbaldehyde

> <PUBCHEM_IUPAC_SYSTEMATIC_NAME>
5-(hydroxymethyl)-1-[[5-(hydroxymethyl)furan-2-yl]methyl]pyrrole-2-carbaldehyde

> <PUBCHEM_IUPAC_TRADITIONAL_NAME>
5-methylol-1-[(5-methylol-2-furyl)methyl]pyrrole-2-carbaldehyde

> <PUBCHEM_IUPAC_INCHI>
InChI=1S/C12H13NO4/c14-6-9-1-2-10(7-15)13(9)5-11-3-4-12(8-16)17-11/h1-4,6,15-16H,5,7-8H2

> <PUBCHEM_IUPAC_INCHIKEY>
QYTYJLHJBSTGKN-UHFFFAOYSA-N

> <PUBCHEM_XLOGP3_AA>
-0.5

> <PUBCHEM_EXACT_MASS>
235.08445790

> <PUBCHEM_MOLECULAR_FORMULA>
C12H13NO4

> <PUBCHEM_MOLECULAR_WEIGHT>
235.24

> <PUBCHEM_OPENEYE_CAN_SMILES>
C1=C(OC(=C1)CO)CN2C(=CC=C2C=O)CO

> <PUBCHEM_OPENEYE_ISO_SMILES>
C1=C(OC(=C1)CO)CN2C(=CC=C2C=O)CO

> <PUBCHEM_CACTVS_TPSA>
75.6

> <PUBCHEM_MONOISOTOPIC_WEIGHT>
235.08445790

> <PUBCHEM_TOTAL_CHARGE>
0

> <PUBCHEM_HEAVY_ATOM_COUNT>
17

> <PUBCHEM_ATOM_DEF_STEREO_COUNT>
0

> <PUBCHEM_ATOM_UDEF_STEREO_COUNT>
0

> <PUBCHEM_BOND_DEF_STEREO_COUNT>
0

> <PUBCHEM_BOND_UDEF_STEREO_COUNT>
0

> <PUBCHEM_ISOTOPIC_ATOM_COUNT>
0

> <PUBCHEM_COMPONENT_COUNT>
1

> <PUBCHEM_CACTVS_TAUTO_COUNT>
-1

> <PUBCHEM_COORDINATE_TYPE>
1
5
255

> <PUBCHEM_BONDANNOTATIONS>
1  14  8
1  9  8
10  11  8
13  15  8
14  15  8
5  7  8
5  8  8
7  10  8
8  11  8
9  13  8

$$$$
