132515677
  -OEChem-03112307472D

 48 49  0     1  0  0  0  0  0999 V2000
    7.1962    1.5600    0.0000 S   0  0  0  0  0  0  0  0  0  0  0  0
    4.5981   -1.9400    0.0000 S   0  0  0  0  0  0  0  0  0  0  0  0
    6.3301    0.0600    0.0000 O   0  0  0  0  0  0  0  0  0  0  0  0
    5.4641   -3.4400    0.0000 O   0  0  0  0  0  0  0  0  0  0  0  0
    7.1962   -3.4400    0.0000 O   0  0  0  0  0  0  0  0  0  0  0  0
   11.1636    1.0215    0.0000 O   0  0  0  0  0  0  0  0  0  0  0  0
    8.9282   -0.4400    0.0000 N   0  0  0  0  0  0  0  0  0  0  0  0
    7.1962   -1.4400    0.0000 N   0  0  0  0  0  0  0  0  0  0  0  0
    8.0622    0.0600    0.0000 C   0  0  2  0  0  0  0  0  0  0  0  0
    8.0622   -1.9400    0.0000 C   0  0  0  0  0  0  0  0  0  0  0  0
    8.9282   -1.4400    0.0000 C   0  0  0  0  0  0  0  0  0  0  0  0
    7.1962   -0.4400    0.0000 C   0  0  0  0  0  0  0  0  0  0  0  0
    6.3301   -1.9400    0.0000 C   0  0  1  0  0  0  0  0  0  0  0  0
    8.0622    1.0600    0.0000 C   0  0  0  0  0  0  0  0  0  0  0  0
    9.8744   -0.1353    0.0000 C   0  0  0  0  0  0  0  0  0  0  0  0
    9.8744   -1.7447    0.0000 C   0  0  0  0  0  0  0  0  0  0  0  0
   10.4580   -0.9400    0.0000 C   0  0  0  0  0  0  0  0  0  0  0  0
    5.4641   -1.4400    0.0000 C   0  0  0  0  0  0  0  0  0  0  0  0
    6.3301   -2.9400    0.0000 C   0  0  0  0  0  0  0  0  0  0  0  0
   10.1851    0.8153    0.0000 C   0  0  0  0  0  0  0  0  0  0  0  0
    7.1962    2.5600    0.0000 C   0  0  0  0  0  0  0  0  0  0  0  0
    3.7320   -1.4400    0.0000 C   0  0  0  0  0  0  0  0  0  0  0  0
    6.3301    3.0600    0.0000 C   0  0  0  0  0  0  0  0  0  0  0  0
    2.8660   -1.9400    0.0000 C   0  0  0  0  0  0  0  0  0  0  0  0
    6.3301    4.0600    0.0000 C   0  0  0  0  0  0  0  0  0  0  0  0
    2.0000   -1.4400    0.0000 C   0  0  0  0  0  0  0  0  0  0  0  0
    8.5991    0.3700    0.0000 H   0  0  0  0  0  0  0  0  0  0  0  0
    7.6636   -2.4150    0.0000 H   0  0  0  0  0  0  0  0  0  0  0  0
    8.4607   -2.4150    0.0000 H   0  0  0  0  0  0  0  0  0  0  0  0
    6.8671   -2.2500    0.0000 H   0  0  0  0  0  0  0  0  0  0  0  0
    8.6728    0.9523    0.0000 H   0  0  0  0  0  0  0  0  0  0  0  0
    8.2742    1.6426    0.0000 H   0  0  0  0  0  0  0  0  0  0  0  0
   10.0670   -2.3340    0.0000 H   0  0  0  0  0  0  0  0  0  0  0  0
   11.0780   -0.9400    0.0000 H   0  0  0  0  0  0  0  0  0  0  0  0
    5.8626   -0.9651    0.0000 H   0  0  0  0  0  0  0  0  0  0  0  0
    5.0656   -0.9651    0.0000 H   0  0  0  0  0  0  0  0  0  0  0  0
    9.7710    1.2767    0.0000 H   0  0  0  0  0  0  0  0  0  0  0  0
    7.8067    2.4523    0.0000 H   0  0  0  0  0  0  0  0  0  0  0  0
    7.4082    3.1426    0.0000 H   0  0  0  0  0  0  0  0  0  0  0  0
    4.1306   -0.9651    0.0000 H   0  0  0  0  0  0  0  0  0  0  0  0
    3.3335   -0.9651    0.0000 H   0  0  0  0  0  0  0  0  0  0  0  0
    5.4641   -4.0600    0.0000 H   0  0  0  0  0  0  0  0  0  0  0  0
    5.7932    2.7500    0.0000 H   0  0  0  0  0  0  0  0  0  0  0  0
    2.8660   -2.5600    0.0000 H   0  0  0  0  0  0  0  0  0  0  0  0
    6.8671    4.3700    0.0000 H   0  0  0  0  0  0  0  0  0  0  0  0
    5.7932    4.3700    0.0000 H   0  0  0  0  0  0  0  0  0  0  0  0
    2.0000   -0.8200    0.0000 H   0  0  0  0  0  0  0  0  0  0  0  0
    1.4631   -1.7500    0.0000 H   0  0  0  0  0  0  0  0  0  0  0  0
  1 14  1  0  0  0  0
  1 21  1  0  0  0  0
  2 18  1  0  0  0  0
  2 22  1  0  0  0  0
  3 12  2  0  0  0  0
  4 19  1  0  0  0  0
  4 42  1  0  0  0  0
  5 19  2  0  0  0  0
  6 20  2  0  0  0  0
  7  9  1  0  0  0  0
  7 11  1  0  0  0  0
  7 15  1  0  0  0  0
  8 10  1  0  0  0  0
  8 12  1  0  0  0  0
  8 13  1  0  0  0  0
  9 12  1  0  0  0  0
  9 14  1  6  0  0  0
  9 27  1  0  0  0  0
 10 11  1  0  0  0  0
 10 28  1  0  0  0  0
 10 29  1  0  0  0  0
 11 16  2  0  0  0  0
 13 18  1  0  0  0  0
 13 19  1  6  0  0  0
 13 30  1  0  0  0  0
 14 31  1  0  0  0  0
 14 32  1  0  0  0  0
 15 17  2  0  0  0  0
 15 20  1  0  0  0  0
 16 17  1  0  0  0  0
 16 33  1  0  0  0  0
 17 34  1  0  0  0  0
 18 35  1  0  0  0  0
 18 36  1  0  0  0  0
 20 37  1  0  0  0  0
 21 23  1  0  0  0  0
 21 38  1  0  0  0  0
 21 39  1  0  0  0  0
 22 24  1  0  0  0  0
 22 40  1  0  0  0  0
 22 41  1  0  0  0  0
 23 25  2  0  0  0  0
 23 43  1  0  0  0  0
 24 26  2  0  0  0  0
 24 44  1  0  0  0  0
 25 45  1  0  0  0  0
 25 46  1  0  0  0  0
 26 47  1  0  0  0  0
 26 48  1  0  0  0  0
M  END
> <PUBCHEM_COMPOUND_CID>
132515677

> <PUBCHEM_COMPOUND_CANONICALIZED>
1

> <PUBCHEM_CACTVS_COMPLEXITY>
557

> <PUBCHEM_CACTVS_HBOND_ACCEPTOR>
6

> <PUBCHEM_CACTVS_HBOND_DONOR>
1

> <PUBCHEM_CACTVS_ROTATABLE_BOND>
11

> <PUBCHEM_CACTVS_SUBSKEYS>
AAADceB7OABgAAAAAAAAAAAAAAAAAWAAAAAsAAAAAAAAAFgBgAAAHgQACAAACCjl1gawiJMMEgioAS3y3ACCgCAnAjAI2CG4ZNgKYPLglbGUQQhghgD4yYcYCQAQAAAAAAAAAAAAAAAAAAAAAAAAAAAAAA==

> <PUBCHEM_IUPAC_OPENEYE_NAME>
(2R)-3-allylsulfanyl-2-[(4R)-4-(allylsulfanylmethyl)-6-formyl-3-oxo-1,4-dihydropyrrolo[1,2-a]pyrazin-2-yl]propanoic acid

> <PUBCHEM_IUPAC_CAS_NAME>
(2R)-2-[(4R)-6-formyl-3-oxo-4-[(prop-2-enylthio)methyl]-1,4-dihydropyrrolo[1,2-a]pyrazin-2-yl]-3-(prop-2-enylthio)propanoic acid

> <PUBCHEM_IUPAC_NAME_MARKUP>
(2<I>R</I>)-2-[(4<I>R</I>)-6-formyl-3-oxo-4-(prop-2-enylsulfanylmethyl)-1,4-dihydropyrrolo[1,2-a]pyrazin-2-yl]-3-prop-2-enylsulfanylpropanoic acid

> <PUBCHEM_IUPAC_NAME>
(2R)-2-[(4R)-6-formyl-3-oxo-4-(prop-2-enylsulfanylmethyl)-1,4-dihydropyrrolo[1,2-a]pyrazin-2-yl]-3-prop-2-enylsulfanylpropanoic acid

> <PUBCHEM_IUPAC_SYSTEMATIC_NAME>
(2R)-2-[(4R)-6-methanoyl-3-oxidanylidene-4-(prop-2-enylsulfanylmethyl)-1,4-dihydropyrrolo[1,2-a]pyrazin-2-yl]-3-prop-2-enylsulfanyl-propanoic acid

> <PUBCHEM_IUPAC_TRADITIONAL_NAME>
(2R)-3-(allylthio)-2-[(4R)-4-[(allylthio)methyl]-6-formyl-3-keto-1,4-dihydropyrrolo[1,2-a]pyrazin-2-yl]propionic acid

> <PUBCHEM_IUPAC_INCHI>
InChI=1S/C18H22N2O4S2/c1-3-7-25-11-15-17(22)19(16(18(23)24)12-26-8-4-2)9-13-5-6-14(10-21)20(13)15/h3-6,10,15-16H,1-2,7-9,11-12H2,(H,23,24)/t15-,16-/m0/s1

> <PUBCHEM_IUPAC_INCHIKEY>
STHIQVXJUZQGIY-HOTGVXAUSA-N

> <PUBCHEM_XLOGP3_AA>
1.9

> <PUBCHEM_EXACT_MASS>
394.10209953

> <PUBCHEM_MOLECULAR_FORMULA>
C18H22N2O4S2

> <PUBCHEM_MOLECULAR_WEIGHT>
394.5

> <PUBCHEM_OPENEYE_CAN_SMILES>
C=CCSCC1C(=O)N(CC2=CC=C(N12)C=O)C(CSCC=C)C(=O)O

> <PUBCHEM_OPENEYE_ISO_SMILES>
C=CCSC[C@H]1C(=O)N(CC2=CC=C(N12)C=O)[C@@H](CSCC=C)C(=O)O

> <PUBCHEM_CACTVS_TPSA>
130

> <PUBCHEM_MONOISOTOPIC_WEIGHT>
394.10209953

> <PUBCHEM_TOTAL_CHARGE>
0

> <PUBCHEM_HEAVY_ATOM_COUNT>
26

> <PUBCHEM_ATOM_DEF_STEREO_COUNT>
2

> <PUBCHEM_ATOM_UDEF_STEREO_COUNT>
0

> <PUBCHEM_BOND_DEF_STEREO_COUNT>
0

> <PUBCHEM_BOND_UDEF_STEREO_COUNT>
0

> <PUBCHEM_ISOTOPIC_ATOM_COUNT>
0

> <PUBCHEM_COMPONENT_COUNT>
1

> <PUBCHEM_CACTVS_TAUTO_COUNT>
-1

> <PUBCHEM_COORDINATE_TYPE>
1
5
255

> <PUBCHEM_BONDANNOTATIONS>
11  16  8
13  19  6
15  17  8
16  17  8
7  11  8
7  15  8
9  14  6

$$$$
