13654640
  -OEChem-03112307023D

 33 34  0     1  0  0  0  0  0999 V2000
    0.5393   -2.2127   -0.2886 O   0  0  0  0  0  0  0  0  0  0  0  0
   -1.3206    2.6641    0.6312 O   0  0  0  0  0  0  0  0  0  0  0  0
   -1.2543   -0.7600   -0.0969 N   0  0  0  0  0  0  0  0  0  0  0  0
    0.4310    1.2656    0.0745 N   0  0  0  0  0  0  0  0  0  0  0  0
   -1.8209    0.5432   -0.4156 C   0  0  1  0  0  0  0  0  0  0  0  0
    0.8876    0.1460   -0.7446 C   0  0  1  0  0  0  0  0  0  0  0  0
   -3.2230    0.4869    0.1784 C   0  0  0  0  0  0  0  0  0  0  0  0
   -2.2684   -1.7010    0.3442 C   0  0  0  0  0  0  0  0  0  0  0  0
   -3.5842   -0.9920    0.0556 C   0  0  0  0  0  0  0  0  0  0  0  0
    2.3822   -0.0797   -0.5817 C   0  0  2  0  0  0  0  0  0  0  0  0
    0.0756   -1.0758   -0.3221 C   0  0  0  0  0  0  0  0  0  0  0  0
   -0.9139    1.5915    0.1934 C   0  0  0  0  0  0  0  0  0  0  0  0
    2.7125   -0.4234    0.8849 C   0  0  0  0  0  0  0  0  0  0  0  0
    3.1577    1.1488   -1.0704 C   0  0  0  0  0  0  0  0  0  0  0  0
    4.1994   -0.6016    1.1576 C   0  0  0  0  0  0  0  0  0  0  0  0
   -1.8422    0.6577   -1.5055 H   0  0  0  0  0  0  0  0  0  0  0  0
    0.6389    0.3696   -1.7895 H   0  0  0  0  0  0  0  0  0  0  0  0
   -3.9265    1.1358   -0.3517 H   0  0  0  0  0  0  0  0  0  0  0  0
   -3.2220    0.7832    1.2348 H   0  0  0  0  0  0  0  0  0  0  0  0
   -2.1246   -1.8636    1.4176 H   0  0  0  0  0  0  0  0  0  0  0  0
   -2.1679   -2.6574   -0.1767 H   0  0  0  0  0  0  0  0  0  0  0  0
   -4.3846   -1.2947    0.7362 H   0  0  0  0  0  0  0  0  0  0  0  0
   -3.9072   -1.2072   -0.9702 H   0  0  0  0  0  0  0  0  0  0  0  0
    2.6812   -0.9306   -1.2083 H   0  0  0  0  0  0  0  0  0  0  0  0
    1.0998    1.9555    0.4015 H   0  0  0  0  0  0  0  0  0  0  0  0
    2.2187   -1.3498    1.1928 H   0  0  0  0  0  0  0  0  0  0  0  0
    2.3471    0.3593    1.5603 H   0  0  0  0  0  0  0  0  0  0  0  0
    2.7967    1.4758   -2.0515 H   0  0  0  0  0  0  0  0  0  0  0  0
    4.2208    0.9125   -1.1868 H   0  0  0  0  0  0  0  0  0  0  0  0
    3.0833    1.9935   -0.3786 H   0  0  0  0  0  0  0  0  0  0  0  0
    4.3535   -0.9484    2.1848 H   0  0  0  0  0  0  0  0  0  0  0  0
    4.7461    0.3393    1.0450 H   0  0  0  0  0  0  0  0  0  0  0  0
    4.6362   -1.3433    0.4815 H   0  0  0  0  0  0  0  0  0  0  0  0
  1 11  2  0  0  0  0
  2 12  2  0  0  0  0
  3  5  1  0  0  0  0
  3  8  1  0  0  0  0
  3 11  1  0  0  0  0
  4  6  1  0  0  0  0
  4 12  1  0  0  0  0
  4 25  1  0  0  0  0
  5  7  1  0  0  0  0
  5 12  1  0  0  0  0
  5 16  1  0  0  0  0
  6 10  1  0  0  0  0
  6 11  1  0  0  0  0
  6 17  1  0  0  0  0
  7  9  1  0  0  0  0
  7 18  1  0  0  0  0
  7 19  1  0  0  0  0
  8  9  1  0  0  0  0
  8 20  1  0  0  0  0
  8 21  1  0  0  0  0
  9 22  1  0  0  0  0
  9 23  1  0  0  0  0
 10 13  1  0  0  0  0
 10 14  1  0  0  0  0
 10 24  1  0  0  0  0
 13 15  1  0  0  0  0
 13 26  1  0  0  0  0
 13 27  1  0  0  0  0
 14 28  1  0  0  0  0
 14 29  1  0  0  0  0
 14 30  1  0  0  0  0
 15 31  1  0  0  0  0
 15 32  1  0  0  0  0
 15 33  1  0  0  0  0
M  END
> <PUBCHEM_COMPOUND_CID>
13654640

> <PUBCHEM_CONFORMER_RMSD>
0.6

> <PUBCHEM_CONFORMER_DIVERSEORDER>
1
4
3
2
5

> <PUBCHEM_MMFF94_PARTIAL_CHARGES>
10
1 -0.57
11 0.57
12 0.57
2 -0.57
25 0.37
3 -0.66
4 -0.73
5 0.36
6 0.36
8 0.3

> <PUBCHEM_EFFECTIVE_ROTOR_COUNT>
3

> <PUBCHEM_PHARMACOPHORE_FEATURES>
7
1 1 acceptor
1 14 hydrophobe
1 15 hydrophobe
1 2 acceptor
1 4 donor
5 3 5 7 8 9 rings
6 3 4 5 6 11 12 rings

> <PUBCHEM_HEAVY_ATOM_COUNT>
15

> <PUBCHEM_ATOM_DEF_STEREO_COUNT>
3

> <PUBCHEM_ATOM_UDEF_STEREO_COUNT>
0

> <PUBCHEM_BOND_DEF_STEREO_COUNT>
0

> <PUBCHEM_BOND_UDEF_STEREO_COUNT>
0

> <PUBCHEM_ISOTOPIC_ATOM_COUNT>
0

> <PUBCHEM_COMPONENT_COUNT>
1

> <PUBCHEM_CACTVS_TAUTO_COUNT>
2

> <PUBCHEM_CONFORMER_ID>
00D05A7000000001

> <PUBCHEM_MMFF94_ENERGY>
43.7362

> <PUBCHEM_FEATURE_SELFOVERLAP>
35.619

> <PUBCHEM_SHAPE_FINGERPRINT>
10062212 137 18335976536850344515
10130415 120 18334857250823541395
11132069 177 18342458119008951523
11680986 33 17908140984235452262
11769659 78 17895187843922695706
12119455 92 16845281731543329998
12251169 10 18260261911266688722
12382932 28 18341339924537247115
13140716 1 18340769359554088673
13380535 76 18267298729823389653
13538477 17 18261956353311528670
13581323 91 18341323444858482570
14614273 12 18263078821355048133
15076042 46 18409166610637260426
15342168 16 15051155922221742440
15375462 189 18116724095359487267
15375462 478 18408595964002399894
15775835 57 18041006171447040212
16945 1 18340494382715138573
17804303 29 18197212543366132186
17846911 113 18342172250338667353
1813 80 17096649782780063250
19026448 4 15554456201446852247
193761 8 17979645532820225775
19422 9 18040435524875339970
20510252 161 18272936011748919360
20525323 117 18270394993121711613
20559304 39 18408041814790097076
20645476 183 17750812123341797902
21501502 16 18125168142823821519
22445834 79 17896029962872095562
2334 1 18052540160144294437
23402539 116 18201141214022559927
23463225 33 18333167258713103166
23559900 14 18271816705133678596
2748010 2 18197214973948090269
4072396 5 18410845543513139403
43471831 8 18336260124845846754
53655031 270 18335698317063043115
537710 114 18336834190084387605
53812653 8 18410020952625799572
53812654 25 18270112538671060990
7364860 26 17841995481553133918
77492 1 17967819349029111676
81228 2 18270416983449596129

> <PUBCHEM_SHAPE_MULTIPOLES>
286.99
6.1
2.04
0.95
2.27
0.46
0.04
-1.03
1.12
-0.81
0.22
0.77
0.06
-0.65

> <PUBCHEM_SHAPE_SELFOVERLAP>
591.498

> <PUBCHEM_SHAPE_VOLUME>
165.1

> <PUBCHEM_COORDINATE_TYPE>
2
5
10

$$$$
