13783105
  -OEChem-03112306493D

 36 37  0     1  0  0  0  0  0999 V2000
    1.8719   -2.4104    0.2961 O   0  0  0  0  0  0  0  0  0  0  0  0
    0.8950    2.7807    0.6516 O   0  0  0  0  0  0  0  0  0  0  0  0
    2.3041    1.0564    0.0692 N   0  0  0  0  0  0  0  0  0  0  0  0
    0.3820   -0.6819    0.5976 N   0  0  0  0  0  0  0  0  0  0  0  0
    2.4454   -0.2288   -0.5994 C   0  0  1  0  0  0  0  0  0  0  0  0
    3.9009   -0.6636   -0.6571 C   0  0  0  0  0  0  0  0  0  0  0  0
   -0.0832    0.6193    0.1407 C   0  0  1  0  0  0  0  0  0  0  0  0
    1.5848   -1.2224    0.1691 C   0  0  0  0  0  0  0  0  0  0  0  0
   -1.3435    1.0442    0.8769 C   0  0  0  0  0  0  0  0  0  0  0  0
    1.0617    1.5988    0.3600 C   0  0  0  0  0  0  0  0  0  0  0  0
    4.7199    0.3348   -1.4643 C   0  0  0  0  0  0  0  0  0  0  0  0
    4.4626   -0.8204    0.7498 C   0  0  0  0  0  0  0  0  0  0  0  0
   -2.5726    0.3774    0.3164 C   0  0  0  0  0  0  0  0  0  0  0  0
   -3.2727    0.9912   -0.7123 C   0  0  0  0  0  0  0  0  0  0  0  0
   -2.9859   -0.8406    0.8368 C   0  0  0  0  0  0  0  0  0  0  0  0
   -4.4106    0.3738   -1.2316 C   0  0  0  0  0  0  0  0  0  0  0  0
   -4.1237   -1.4579    0.3174 C   0  0  0  0  0  0  0  0  0  0  0  0
   -4.8361   -0.8507   -0.7169 C   0  0  0  0  0  0  0  0  0  0  0  0
    2.0280   -0.1317   -1.6094 H   0  0  0  0  0  0  0  0  0  0  0  0
    3.9637   -1.6372   -1.1601 H   0  0  0  0  0  0  0  0  0  0  0  0
   -0.2527    0.5550   -0.9420 H   0  0  0  0  0  0  0  0  0  0  0  0
    3.1016    1.6798    0.1405 H   0  0  0  0  0  0  0  0  0  0  0  0
   -1.4910    2.1302    0.8092 H   0  0  0  0  0  0  0  0  0  0  0  0
   -1.2617    0.8350    1.9524 H   0  0  0  0  0  0  0  0  0  0  0  0
   -0.2660   -1.3058    1.0673 H   0  0  0  0  0  0  0  0  0  0  0  0
    4.8291    1.3018   -0.9639 H   0  0  0  0  0  0  0  0  0  0  0  0
    5.7313   -0.0544   -1.6280 H   0  0  0  0  0  0  0  0  0  0  0  0
    4.2732    0.5064   -2.4495 H   0  0  0  0  0  0  0  0  0  0  0  0
    4.4416    0.1176    1.3148 H   0  0  0  0  0  0  0  0  0  0  0  0
    5.5121   -1.1337    0.6971 H   0  0  0  0  0  0  0  0  0  0  0  0
    3.9434   -1.5801    1.3396 H   0  0  0  0  0  0  0  0  0  0  0  0
   -2.9484    1.9435   -1.1222 H   0  0  0  0  0  0  0  0  0  0  0  0
   -2.4474   -1.3199    1.6489 H   0  0  0  0  0  0  0  0  0  0  0  0
   -4.9650    0.8462   -2.0373 H   0  0  0  0  0  0  0  0  0  0  0  0
   -4.4565   -2.4102    0.7197 H   0  0  0  0  0  0  0  0  0  0  0  0
   -5.7223   -1.3312   -1.1209 H   0  0  0  0  0  0  0  0  0  0  0  0
  1  8  2  0  0  0  0
  2 10  2  0  0  0  0
  3  5  1  0  0  0  0
  3 10  1  0  0  0  0
  3 22  1  0  0  0  0
  4  7  1  0  0  0  0
  4  8  1  0  0  0  0
  4 25  1  0  0  0  0
  5  6  1  0  0  0  0
  5  8  1  0  0  0  0
  5 19  1  0  0  0  0
  6 11  1  0  0  0  0
  6 12  1  0  0  0  0
  6 20  1  0  0  0  0
  7  9  1  0  0  0  0
  7 10  1  0  0  0  0
  7 21  1  0  0  0  0
  9 13  1  0  0  0  0
  9 23  1  0  0  0  0
  9 24  1  0  0  0  0
 11 26  1  0  0  0  0
 11 27  1  0  0  0  0
 11 28  1  0  0  0  0
 12 29  1  0  0  0  0
 12 30  1  0  0  0  0
 12 31  1  0  0  0  0
 13 14  2  0  0  0  0
 13 15  1  0  0  0  0
 14 16  1  0  0  0  0
 14 32  1  0  0  0  0
 15 17  2  0  0  0  0
 15 33  1  0  0  0  0
 16 18  2  0  0  0  0
 16 34  1  0  0  0  0
 17 18  1  0  0  0  0
 17 35  1  0  0  0  0
 18 36  1  0  0  0  0
M  END
> <PUBCHEM_COMPOUND_CID>
13783105

> <PUBCHEM_CONFORMER_RMSD>
0.6

> <PUBCHEM_CONFORMER_DIVERSEORDER>
1
22
20
19
17
9
13
21
14
12
5
23
8
7
4
6
10
2
16
11
15
3
18

> <PUBCHEM_MMFF94_PARTIAL_CHARGES>
22
1 -0.57
10 0.57
13 -0.14
14 -0.15
15 -0.15
16 -0.15
17 -0.15
18 -0.15
2 -0.57
22 0.37
25 0.37
3 -0.73
32 0.15
33 0.15
34 0.15
35 0.15
36 0.15
4 -0.73
5 0.36
7 0.36
8 0.57
9 0.14

> <PUBCHEM_EFFECTIVE_ROTOR_COUNT>
3.8

> <PUBCHEM_PHARMACOPHORE_FEATURES>
7
1 1 acceptor
1 2 acceptor
1 3 donor
1 4 donor
3 6 11 12 hydrophobe
6 13 14 15 16 17 18 rings
6 3 4 5 7 8 10 rings

> <PUBCHEM_HEAVY_ATOM_COUNT>
18

> <PUBCHEM_ATOM_DEF_STEREO_COUNT>
2

> <PUBCHEM_ATOM_UDEF_STEREO_COUNT>
0

> <PUBCHEM_BOND_DEF_STEREO_COUNT>
0

> <PUBCHEM_BOND_UDEF_STEREO_COUNT>
0

> <PUBCHEM_ISOTOPIC_ATOM_COUNT>
0

> <PUBCHEM_COMPONENT_COUNT>
1

> <PUBCHEM_CACTVS_TAUTO_COUNT>
4

> <PUBCHEM_CONFORMER_ID>
00D2504100000001

> <PUBCHEM_MMFF94_ENERGY>
57.2131

> <PUBCHEM_FEATURE_SELFOVERLAP>
35.529

> <PUBCHEM_SHAPE_FINGERPRINT>
10366900 7 18260548956963766267
10498660 4 16660912310726121405
11543360 7 17168153372289170564
11806522 49 18343865528315663680
12251169 10 10807930470872447641
12553582 1 18341622485966493627
12670546 177 17967253104550951077
12707595 3 18272089413449167321
13862211 1 18412543185419611906
14252887 29 17489591143168148022
14576447 43 18343017796028761238
15209294 21 11891337594659485260
15788980 27 17022903428094463786
1813 80 17131846364500770180
18186145 218 18261104197656645697
18222031 100 17989205941148049372
193927 3 17775015595325457173
19433438 38 18113334198232655311
19784866 170 10015590518649333523
19784866 240 16988558035697922085
200 152 18201998833192237315
20281475 54 18338802204107514248
20645477 70 18201996672760540077
20671657 53 18342740715051514145
20871999 31 18334297548250602181
21065199 12 10375882896029391349
21256008 61 18272368676412205996
21634736 98 18129377279435460175
21637258 2 16128378117320064942
221357 26 18409722963958823773
221490 88 18266181823483340211
22646028 28 17917993880146966991
231179 274 11891329850538012209
23402539 116 18130230359056794814
23402655 69 18261392204930298069
23559900 14 18336254752089432265
2748010 2 17977111476034480928
2838139 119 16154284926289489124
2871803 45 18410293605407244799
3472631 163 15719386236017384431
4921388 177 16443076010474641955

> <PUBCHEM_SHAPE_MULTIPOLES>
348.73
10.16
1.92
1.1
1.31
0.34
0.22
-2.89
3.41
-0.39
-0.46
-0.07
0.1
0.07

> <PUBCHEM_SHAPE_SELFOVERLAP>
730.974

> <PUBCHEM_SHAPE_VOLUME>
195.3

> <PUBCHEM_COORDINATE_TYPE>
2
5
10

$$$$
