13879951
  -OEChem-03112306463D

 24 25  0     1  0  0  0  0  0999 V2000
    1.4594   -2.1487    0.2169 O   0  0  0  0  0  0  0  0  0  0  0  0
   -0.6576    2.7081    0.3543 O   0  0  0  0  0  0  0  0  0  0  0  0
   -0.3861   -0.7652    0.0057 N   0  0  0  0  0  0  0  0  0  0  0  0
    1.1964    1.3402    0.1946 N   0  0  0  0  0  0  0  0  0  0  0  0
   -0.9405    0.4732   -0.5231 C   0  0  1  0  0  0  0  0  0  0  0  0
   -2.4104    0.4142   -0.1258 C   0  0  0  0  0  0  0  0  0  0  0  0
   -1.4238   -1.7017    0.3989 C   0  0  0  0  0  0  0  0  0  0  0  0
   -2.7060   -1.0841   -0.1414 C   0  0  0  0  0  0  0  0  0  0  0  0
    1.7980    0.1660   -0.4315 C   0  0  2  0  0  0  0  0  0  0  0  0
    0.9712   -1.0425    0.0006 C   0  0  0  0  0  0  0  0  0  0  0  0
   -0.1609    1.6163    0.0918 C   0  0  0  0  0  0  0  0  0  0  0  0
    3.2604    0.0242   -0.0411 C   0  0  0  0  0  0  0  0  0  0  0  0
   -0.8103    0.4774   -1.6114 H   0  0  0  0  0  0  0  0  0  0  0  0
   -3.0507    0.9751   -0.8131 H   0  0  0  0  0  0  0  0  0  0  0  0
   -2.5682    0.8141    0.8836 H   0  0  0  0  0  0  0  0  0  0  0  0
   -1.4290   -1.7499    1.4930 H   0  0  0  0  0  0  0  0  0  0  0  0
   -1.2218   -2.6999    0.0001 H   0  0  0  0  0  0  0  0  0  0  0  0
   -3.5854   -1.3527    0.4502 H   0  0  0  0  0  0  0  0  0  0  0  0
   -2.8736   -1.4146   -1.1737 H   0  0  0  0  0  0  0  0  0  0  0  0
    1.7066    0.2781   -1.5182 H   0  0  0  0  0  0  0  0  0  0  0  0
    1.8045    2.0806    0.5320 H   0  0  0  0  0  0  0  0  0  0  0  0
    3.7149   -0.8447   -0.5285 H   0  0  0  0  0  0  0  0  0  0  0  0
    3.8294    0.9139   -0.3312 H   0  0  0  0  0  0  0  0  0  0  0  0
    3.3717   -0.1039    1.0416 H   0  0  0  0  0  0  0  0  0  0  0  0
  1 10  2  0  0  0  0
  2 11  2  0  0  0  0
  3  5  1  0  0  0  0
  3  7  1  0  0  0  0
  3 10  1  0  0  0  0
  4  9  1  0  0  0  0
  4 11  1  0  0  0  0
  4 21  1  0  0  0  0
  5  6  1  0  0  0  0
  5 11  1  0  0  0  0
  5 13  1  0  0  0  0
  6  8  1  0  0  0  0
  6 14  1  0  0  0  0
  6 15  1  0  0  0  0
  7  8  1  0  0  0  0
  7 16  1  0  0  0  0
  7 17  1  0  0  0  0
  8 18  1  0  0  0  0
  8 19  1  0  0  0  0
  9 10  1  0  0  0  0
  9 12  1  0  0  0  0
  9 20  1  0  0  0  0
 12 22  1  0  0  0  0
 12 23  1  0  0  0  0
 12 24  1  0  0  0  0
M  END
> <PUBCHEM_COMPOUND_CID>
13879951

> <PUBCHEM_CONFORMER_RMSD>
0.4

> <PUBCHEM_CONFORMER_DIVERSEORDER>
1

> <PUBCHEM_MMFF94_PARTIAL_CHARGES>
10
1 -0.57
10 0.57
11 0.57
2 -0.57
21 0.37
3 -0.66
4 -0.73
5 0.36
7 0.3
9 0.36

> <PUBCHEM_EFFECTIVE_ROTOR_COUNT>
1

> <PUBCHEM_PHARMACOPHORE_FEATURES>
5
1 1 acceptor
1 2 acceptor
1 4 donor
5 3 5 6 7 8 rings
6 3 4 5 9 10 11 rings

> <PUBCHEM_HEAVY_ATOM_COUNT>
12

> <PUBCHEM_ATOM_DEF_STEREO_COUNT>
2

> <PUBCHEM_ATOM_UDEF_STEREO_COUNT>
0

> <PUBCHEM_BOND_DEF_STEREO_COUNT>
0

> <PUBCHEM_BOND_UDEF_STEREO_COUNT>
0

> <PUBCHEM_ISOTOPIC_ATOM_COUNT>
0

> <PUBCHEM_COMPONENT_COUNT>
1

> <PUBCHEM_CACTVS_TAUTO_COUNT>
2

> <PUBCHEM_CONFORMER_ID>
00D3CA8F00000001

> <PUBCHEM_MMFF94_ENERGY>
36.9857

> <PUBCHEM_FEATURE_SELFOVERLAP>
25.47

> <PUBCHEM_SHAPE_FINGERPRINT>
108231 29 18266184022437913610
12382932 28 18411983554842466235
12524768 44 18270970037661119999
12897270 3 18410293609844740926
16945 1 18409168787853344228
193761 8 18050568434915898694
20201158 50 18335979839395267639
20588541 1 18334577975065498911
21040471 1 17835242242522423060
21501502 16 18195247707106679338
2334 1 18050568739921893236
23552423 10 18188778236354693238
23559900 14 18413111672012853692
241688 4 17975693892103387648
2748010 2 18194399128647760140
5084963 1 17842283854231094771
528886 8 18411978083022547427
53812653 166 18412542132619426385
66348 1 18411418405823545579

> <PUBCHEM_SHAPE_MULTIPOLES>
225.25
3.69
2.27
0.66
0.82
0.66
-0.03
-0.9
-0.19
-0.21
0.39
-0.03
0.01
0.04

> <PUBCHEM_SHAPE_SELFOVERLAP>
471.138

> <PUBCHEM_SHAPE_VOLUME>
128.2

> <PUBCHEM_COORDINATE_TYPE>
2
5
10

$$$$
