13941336
  -OEChem-03102308183D

 48 51  0     1  0  0  0  0  0999 V2000
    4.0373    1.0820    0.1185 O   0  0  0  0  0  0  0  0  0  0  0  0
   -0.7151    0.2702    0.2420 O   0  0  0  0  0  0  0  0  0  0  0  0
    2.5047   -3.3568    0.1471 O   0  0  0  0  0  0  0  0  0  0  0  0
   -0.0500   -3.7678    0.3024 O   0  0  0  0  0  0  0  0  0  0  0  0
   -6.8023    1.7488    0.0543 O   0  0  0  0  0  0  0  0  0  0  0  0
    3.8075    2.4837   -0.1118 C   0  0  0  0  0  0  0  0  0  0  0  0
    2.5676    2.9815    0.6443 C   0  0  0  0  0  0  0  0  0  0  0  0
    1.3246    2.1979    0.2481 C   0  0  0  0  0  0  0  0  0  0  0  0
    1.6155    0.7229    0.2167 C   0  0  0  0  0  0  0  0  0  0  0  0
    2.9385    0.2631    0.1502 C   0  0  0  0  0  0  0  0  0  0  0  0
    0.5693   -0.2164    0.2089 C   0  0  0  0  0  0  0  0  0  0  0  0
    0.8530   -1.5878    0.2005 C   0  0  0  0  0  0  0  0  0  0  0  0
    5.0461    3.2079    0.4356 C   0  0  0  0  0  0  0  0  0  0  0  0
    3.7240    2.7359   -1.6248 C   0  0  0  0  0  0  0  0  0  0  0  0
   -1.6777   -0.6344   -0.3183 C   0  0  1  0  0  0  0  0  0  0  0  0
   -1.6406   -1.9775    0.4048 C   0  0  0  0  0  0  0  0  0  0  0  0
    3.2127   -1.1081    0.1301 C   0  0  0  0  0  0  0  0  0  0  0  0
    2.1734   -2.0357    0.1592 C   0  0  0  0  0  0  0  0  0  0  0  0
   -0.2576   -2.5603    0.2805 C   0  0  0  0  0  0  0  0  0  0  0  0
   -3.0476    0.0025   -0.2186 C   0  0  0  0  0  0  0  0  0  0  0  0
   -3.7603    0.3067   -1.3777 C   0  0  0  0  0  0  0  0  0  0  0  0
   -3.5954    0.2843    1.0326 C   0  0  0  0  0  0  0  0  0  0  0  0
   -5.0224    0.8937   -1.2858 C   0  0  0  0  0  0  0  0  0  0  0  0
   -4.8575    0.8712    1.1245 C   0  0  0  0  0  0  0  0  0  0  0  0
    2.6234   -3.9836   -1.1286 C   0  0  0  0  0  0  0  0  0  0  0  0
   -5.5711    1.1760   -0.0348 C   0  0  0  0  0  0  0  0  0  0  0  0
    2.4026    4.0526    0.4779 H   0  0  0  0  0  0  0  0  0  0  0  0
    2.7262    2.8444    1.7233 H   0  0  0  0  0  0  0  0  0  0  0  0
    0.9726    2.5137   -0.7409 H   0  0  0  0  0  0  0  0  0  0  0  0
    0.5297    2.4177    0.9704 H   0  0  0  0  0  0  0  0  0  0  0  0
    5.1754    3.0052    1.5052 H   0  0  0  0  0  0  0  0  0  0  0  0
    5.9581    2.8503   -0.0563 H   0  0  0  0  0  0  0  0  0  0  0  0
    4.9771    4.2914    0.2936 H   0  0  0  0  0  0  0  0  0  0  0  0
    3.5739    3.7979   -1.8452 H   0  0  0  0  0  0  0  0  0  0  0  0
    4.6437    2.4063   -2.1222 H   0  0  0  0  0  0  0  0  0  0  0  0
    2.9122    2.1692   -2.0919 H   0  0  0  0  0  0  0  0  0  0  0  0
   -1.4265   -0.7762   -1.3799 H   0  0  0  0  0  0  0  0  0  0  0  0
   -2.3601   -2.6723   -0.0427 H   0  0  0  0  0  0  0  0  0  0  0  0
   -1.8514   -1.8885    1.4763 H   0  0  0  0  0  0  0  0  0  0  0  0
    4.2441   -1.4524    0.0924 H   0  0  0  0  0  0  0  0  0  0  0  0
   -3.3464    0.0931   -2.3594 H   0  0  0  0  0  0  0  0  0  0  0  0
   -3.0508    0.0659    1.9470 H   0  0  0  0  0  0  0  0  0  0  0  0
   -5.5681    1.1263   -2.1964 H   0  0  0  0  0  0  0  0  0  0  0  0
   -5.2785    1.0913    2.1017 H   0  0  0  0  0  0  0  0  0  0  0  0
    1.7511   -3.7796   -1.7577 H   0  0  0  0  0  0  0  0  0  0  0  0
    2.6996   -5.0634   -0.9742 H   0  0  0  0  0  0  0  0  0  0  0  0
    3.5317   -3.6373   -1.6314 H   0  0  0  0  0  0  0  0  0  0  0  0
   -7.1500    1.8899   -0.8430 H   0  0  0  0  0  0  0  0  0  0  0  0
  1  6  1  0  0  0  0
  1 10  1  0  0  0  0
  2 11  1  0  0  0  0
  2 15  1  0  0  0  0
  3 18  1  0  0  0  0
  3 25  1  0  0  0  0
  4 19  2  0  0  0  0
  5 26  1  0  0  0  0
  5 48  1  0  0  0  0
  6  7  1  0  0  0  0
  6 13  1  0  0  0  0
  6 14  1  0  0  0  0
  7  8  1  0  0  0  0
  7 27  1  0  0  0  0
  7 28  1  0  0  0  0
  8  9  1  0  0  0  0
  8 29  1  0  0  0  0
  8 30  1  0  0  0  0
  9 10  1  0  0  0  0
  9 11  2  0  0  0  0
 10 17  2  0  0  0  0
 11 12  1  0  0  0  0
 12 18  2  0  0  0  0
 12 19  1  0  0  0  0
 13 31  1  0  0  0  0
 13 32  1  0  0  0  0
 13 33  1  0  0  0  0
 14 34  1  0  0  0  0
 14 35  1  0  0  0  0
 14 36  1  0  0  0  0
 15 16  1  0  0  0  0
 15 20  1  0  0  0  0
 15 37  1  0  0  0  0
 16 19  1  0  0  0  0
 16 38  1  0  0  0  0
 16 39  1  0  0  0  0
 17 18  1  0  0  0  0
 17 40  1  0  0  0  0
 20 21  2  0  0  0  0
 20 22  1  0  0  0  0
 21 23  1  0  0  0  0
 21 41  1  0  0  0  0
 22 24  2  0  0  0  0
 22 42  1  0  0  0  0
 23 26  2  0  0  0  0
 23 43  1  0  0  0  0
 24 26  1  0  0  0  0
 24 44  1  0  0  0  0
 25 45  1  0  0  0  0
 25 46  1  0  0  0  0
 25 47  1  0  0  0  0
M  END
> <PUBCHEM_COMPOUND_CID>
13941336

> <PUBCHEM_CONFORMER_RMSD>
0.8

> <PUBCHEM_CONFORMER_DIVERSEORDER>
2
3
1
4
5

> <PUBCHEM_MMFF94_PARTIAL_CHARGES>
29
1 -0.36
10 0.08
11 0.08
12 0.09
15 0.42
16 0.06
17 -0.15
18 0.08
19 0.42
2 -0.36
20 -0.14
21 -0.15
22 -0.15
23 -0.15
24 -0.15
25 0.28
26 0.08
3 -0.36
4 -0.57
40 0.15
41 0.15
42 0.15
43 0.15
44 0.15
48 0.45
5 -0.53
6 0.28
8 0.14
9 -0.14

> <PUBCHEM_EFFECTIVE_ROTOR_COUNT>
3.4

> <PUBCHEM_PHARMACOPHORE_FEATURES>
10
1 1 acceptor
1 2 acceptor
1 3 acceptor
1 4 acceptor
1 5 donor
3 6 13 14 hydrophobe
6 1 6 7 8 9 10 rings
6 2 11 12 15 16 19 rings
6 20 21 22 23 24 26 rings
6 9 10 11 12 17 18 rings

> <PUBCHEM_HEAVY_ATOM_COUNT>
26

> <PUBCHEM_ATOM_DEF_STEREO_COUNT>
0

> <PUBCHEM_ATOM_UDEF_STEREO_COUNT>
1

> <PUBCHEM_BOND_DEF_STEREO_COUNT>
0

> <PUBCHEM_BOND_UDEF_STEREO_COUNT>
0

> <PUBCHEM_ISOTOPIC_ATOM_COUNT>
0

> <PUBCHEM_COMPONENT_COUNT>
1

> <PUBCHEM_CACTVS_TAUTO_COUNT>
4

> <PUBCHEM_CONFORMER_ID>
00D4BA5800000002

> <PUBCHEM_MMFF94_ENERGY>
92.6453

> <PUBCHEM_FEATURE_SELFOVERLAP>
50.817

> <PUBCHEM_SHAPE_FINGERPRINT>
10411042 1 17834677089335941482
10483366 6 18339658741847838702
10595046 47 18343576353253869189
10675989 125 18413108338169354920
10693767 8 17987802891539845670
1100329 8 18410008828213237154
11796584 16 13973960996108301853
12107183 9 18190724518877693312
12173636 292 17906731754337263126
12236239 1 17702655537792164323
12293681 160 17774167936744511512
12390115 104 18266473181010935265
12422481 6 17677314113574745956
12730499 353 18408611370281965499
12769317 202 18411971473084040881
12788726 201 17417823803047172793
13140716 1 18335982055777909738
13540713 4 18264507207039784954
13590594 115 17908432346263431610
138480 1 18122907525669410250
13878862 14 18191284019640098989
13965767 371 18042106804356952156
14790565 3 18193282012097451932
14848178 96 18411696625315792489
15081414 286 18268711597981079598
15342168 16 18335422391664094445
15420108 30 18197197334865688786
15439362 3 18411700976396874372
15475509 35 16298942035499632083
17818456 19 16985473716139362337
17980427 26 17629730574544949928
1813 80 17699013881243802887
18785283 64 18333732385977761555
19784866 34 18340767156040901064
20157964 124 18410290277683478489
20554085 129 17916568956196172984
20612939 158 18341048523943849765
20739085 24 18259991457023618060
21033648 144 18261660562934397381
21033648 29 17385716955862592957
21033650 10 15123244212591583195
21279426 13 18269849760668366628
21860390 5 18271527503104822150
22122407 14 18197793094396492969
23559900 14 18341891870779648978
23845131 108 18261110807548504811
23929065 36 17193452220707268312
24771293 8 18128800972867387338
24771750 20 18264791981078633878
3178227 256 18261397680813485114
335352 9 18410292511008223046
34797466 226 14764050290899754273
350125 39 18335701594471587300
376196 1 18338509871743655802
397830 11 18188226329928164217
44555599 121 18056479440695198889
474 4 18412540999080395651
5104073 3 18187641444336779803
5385378 56 18410857654909633160
57724786 102 18336551512976166121
6034566 193 17972049290288694165
633830 44 18272375243844417871
6443956 14 18122627150003653078
7808743 9 17972321986584457700
8272917 22 18412825754963740519
9841814 1 18116144468254238986
9981440 41 18195239142841873010

> <PUBCHEM_SHAPE_MULTIPOLES>
505.72
11.5
4.55
1.05
14.64
3.2
-0.3
-11.22
-0.87
-6.35
-0.39
0.42
-0.28
0.3

> <PUBCHEM_SHAPE_SELFOVERLAP>
1113.699

> <PUBCHEM_SHAPE_VOLUME>
272.1

> <PUBCHEM_COORDINATE_TYPE>
2
5
10

$$$$
