14056365
  -OEChem-03112307363D

 38 38  0     1  0  0  0  0  0999 V2000
   -1.1144    0.2939    0.8771 O   0  0  0  0  0  0  0  0  0  0  0  0
   -1.5649    0.3544   -1.4169 O   0  0  0  0  0  0  0  0  0  0  0  0
    4.2426    0.7111   -0.3635 O   0  0  0  0  0  0  0  0  0  0  0  0
   -3.3808    0.1880    0.1972 C   0  0  1  0  0  0  0  0  0  0  0  0
   -4.1827    1.4189   -0.2490 C   0  0  0  0  0  0  0  0  0  0  0  0
   -3.9798   -1.0920   -0.3779 C   0  0  0  0  0  0  0  0  0  0  0  0
   -1.9309    0.2802   -0.2506 C   0  0  0  0  0  0  0  0  0  0  0  0
   -3.5942    2.7216    0.2774 C   0  0  0  0  0  0  0  0  0  0  0  0
    0.2438    0.3774    0.5630 C   0  0  0  0  0  0  0  0  0  0  0  0
    0.9800   -0.7722    0.3739 C   0  0  0  0  0  0  0  0  0  0  0  0
    0.7982    1.6356    0.4532 C   0  0  0  0  0  0  0  0  0  0  0  0
    2.3345   -0.6596    0.0603 C   0  0  0  0  0  0  0  0  0  0  0  0
    2.9208    0.6006   -0.0570 C   0  0  0  0  0  0  0  0  0  0  0  0
    2.1527    1.7482    0.1394 C   0  0  0  0  0  0  0  0  0  0  0  0
    0.3912   -2.0996    0.4908 C   0  0  0  0  0  0  0  0  0  0  0  0
    0.7739   -3.1972   -0.1977 C   0  0  0  0  0  0  0  0  0  0  0  0
    0.1335   -4.5394   -0.0518 C   0  0  0  0  0  0  0  0  0  0  0  0
    4.7766    2.0299   -0.4679 C   0  0  0  0  0  0  0  0  0  0  0  0
   -3.4144    0.1215    1.2921 H   0  0  0  0  0  0  0  0  0  0  0  0
   -5.2170    1.3268    0.1034 H   0  0  0  0  0  0  0  0  0  0  0  0
   -4.2206    1.4705   -1.3442 H   0  0  0  0  0  0  0  0  0  0  0  0
   -3.3997   -1.9673   -0.0648 H   0  0  0  0  0  0  0  0  0  0  0  0
   -3.9861   -1.0764   -1.4734 H   0  0  0  0  0  0  0  0  0  0  0  0
   -5.0104   -1.2280   -0.0341 H   0  0  0  0  0  0  0  0  0  0  0  0
   -3.5137    2.7026    1.3690 H   0  0  0  0  0  0  0  0  0  0  0  0
   -4.2386    3.5622    0.0005 H   0  0  0  0  0  0  0  0  0  0  0  0
   -2.6012    2.9145   -0.1398 H   0  0  0  0  0  0  0  0  0  0  0  0
    0.2005    2.5290    0.6067 H   0  0  0  0  0  0  0  0  0  0  0  0
    2.9647   -1.5344   -0.0811 H   0  0  0  0  0  0  0  0  0  0  0  0
    2.5433    2.7572    0.0638 H   0  0  0  0  0  0  0  0  0  0  0  0
   -0.4349   -2.1932    1.1924 H   0  0  0  0  0  0  0  0  0  0  0  0
    1.5780   -3.1422   -0.9266 H   0  0  0  0  0  0  0  0  0  0  0  0
   -0.2787   -4.8618   -1.0128 H   0  0  0  0  0  0  0  0  0  0  0  0
    0.8783   -5.2744    0.2681 H   0  0  0  0  0  0  0  0  0  0  0  0
   -0.6779   -4.5333    0.6827 H   0  0  0  0  0  0  0  0  0  0  0  0
    4.7213    2.5634    0.4870 H   0  0  0  0  0  0  0  0  0  0  0  0
    4.3084    2.5902   -1.2843 H   0  0  0  0  0  0  0  0  0  0  0  0
    5.8382    1.9300   -0.7169 H   0  0  0  0  0  0  0  0  0  0  0  0
  1  7  1  0  0  0  0
  1  9  1  0  0  0  0
  2  7  2  0  0  0  0
  3 13  1  0  0  0  0
  3 18  1  0  0  0  0
  4  5  1  0  0  0  0
  4  6  1  0  0  0  0
  4  7  1  0  0  0  0
  4 19  1  0  0  0  0
  5  8  1  0  0  0  0
  5 20  1  0  0  0  0
  5 21  1  0  0  0  0
  6 22  1  0  0  0  0
  6 23  1  0  0  0  0
  6 24  1  0  0  0  0
  8 25  1  0  0  0  0
  8 26  1  0  0  0  0
  8 27  1  0  0  0  0
  9 10  2  0  0  0  0
  9 11  1  0  0  0  0
 10 12  1  0  0  0  0
 10 15  1  0  0  0  0
 11 14  2  0  0  0  0
 11 28  1  0  0  0  0
 12 13  2  0  0  0  0
 12 29  1  0  0  0  0
 13 14  1  0  0  0  0
 14 30  1  0  0  0  0
 15 16  2  0  0  0  0
 15 31  1  0  0  0  0
 16 17  1  0  0  0  0
 16 32  1  0  0  0  0
 17 33  1  0  0  0  0
 17 34  1  0  0  0  0
 17 35  1  0  0  0  0
 18 36  1  0  0  0  0
 18 37  1  0  0  0  0
 18 38  1  0  0  0  0
M  END
> <PUBCHEM_COMPOUND_CID>
14056365

> <PUBCHEM_CONFORMER_RMSD>
0.8

> <PUBCHEM_CONFORMER_DIVERSEORDER>
1
53
60
73
34
44
32
82
58
81
52
87
76
91
68
98
94
61
14
46
39
99
83
8
74
35
102
9
56
75
12
13
77
22
36
67
95
41
80
49
28
45
43
7
23
31
17
59
71
30
96
47
37
50
85
101
84
78
97
69
63
57
88
86
3
64
25
29
10
72
33
92
55
40
62
104
11
2
51
15
54
27
48
4
66
70
24
38
103
19
20
89
42
16
21
5
90
18
26
65
6
100
79
93

> <PUBCHEM_MMFF94_PARTIAL_CHARGES>
20
1 -0.23
10 0.03
11 -0.15
12 -0.15
13 0.08
14 -0.15
15 -0.18
16 -0.29
17 0.14
18 0.28
2 -0.57
28 0.15
29 0.15
3 -0.36
30 0.15
31 0.15
32 0.15
4 0.06
7 0.66
9 0.08

> <PUBCHEM_EFFECTIVE_ROTOR_COUNT>
6

> <PUBCHEM_PHARMACOPHORE_FEATURES>
6
1 17 hydrophobe
1 2 acceptor
1 3 acceptor
1 6 hydrophobe
1 8 hydrophobe
6 9 10 11 12 13 14 rings

> <PUBCHEM_HEAVY_ATOM_COUNT>
18

> <PUBCHEM_ATOM_DEF_STEREO_COUNT>
0

> <PUBCHEM_ATOM_UDEF_STEREO_COUNT>
1

> <PUBCHEM_BOND_DEF_STEREO_COUNT>
1

> <PUBCHEM_BOND_UDEF_STEREO_COUNT>
0

> <PUBCHEM_ISOTOPIC_ATOM_COUNT>
0

> <PUBCHEM_COMPONENT_COUNT>
1

> <PUBCHEM_CACTVS_TAUTO_COUNT>
1

> <PUBCHEM_CONFORMER_ID>
00D67BAD00000001

> <PUBCHEM_MMFF94_ENERGY>
51.8614

> <PUBCHEM_FEATURE_SELFOVERLAP>
30.447

> <PUBCHEM_SHAPE_FINGERPRINT>
10411042 1 17257372942984026051
11265709 11 17400641519632693843
116883 192 17404014825769761609
12173636 292 18339076107109792133
12293681 160 17989210334968698328
12553582 1 17475518270469838651
12730499 353 18336554828648168721
12788726 201 17757544527850003258
13004483 165 16967440501220654179
13533116 47 18198050393028011469
138480 1 17834395614142621667
14178342 30 18197472083680949635
14251751 93 18130503123734412663
14415576 193 18335703797441423109
14790565 3 18410299103430373772
15442244 35 17693094068122382089
17539 30 17837487819139915518
18186145 218 17988644137529188985
19591789 44 18410855494572867858
19784866 34 18411982438172477360
201361 129 18340488842223248345
20344682 1 17894909659048975253
20645477 70 18263355894206486347
21501502 16 18336256830874221915
21524375 3 18186798127655883050
2255824 54 18195527000018847362
23402539 116 18342452660538470340
23402655 69 18413388722176645797
23419403 2 17539175749873409610
23559900 14 18124305004605318483
23598291 2 18057868178770493503
25 1 18408602530743599416
2748010 2 18265637483850267202
2871803 45 18198328736657351199
298252 57 18334577988161229058
3060560 45 18409163307649115606
3091708 16 9192408131564970202
3250762 1 17478887642079494184
394222 165 18113896044521874760
4280585 95 17552365375713020398
458136 41 18338245877036166731
58051976 378 18339922713983485183
58779409 54 17981323701350259350
58779409 8 18338243789982799798
6138700 20 18267028241990889278
633830 44 18342739585422205820
7364860 26 18194962941910843323
81228 2 17397252206415049506
81539 233 18335981973888388894
8272917 22 18268432330801727181
84936 182 18272645706293347544

> <PUBCHEM_SHAPE_MULTIPOLES>
352.82
7.65
3.98
0.81
0.78
5.37
-0.07
-6.54
-1.36
-0.53
-0.04
0.13
-0.06
-0.43

> <PUBCHEM_SHAPE_SELFOVERLAP>
717.633

> <PUBCHEM_SHAPE_VOLUME>
205.8

> <PUBCHEM_COORDINATE_TYPE>
2
5
10

$$$$
