14162699
  -OEChem-03292323473D

 60 63  0     1  0  0  0  0  0999 V2000
    0.3908    1.8253   -0.6098 O   0  0  0  0  0  0  0  0  0  0  0  0
    1.8214    0.1867   -1.4539 O   0  0  0  0  0  0  0  0  0  0  0  0
    0.9614    5.2363    0.5956 O   0  0  0  0  0  0  0  0  0  0  0  0
    3.2204    4.7539   -1.1422 O   0  0  0  0  0  0  0  0  0  0  0  0
    4.0187    1.9199   -1.0337 O   0  0  0  0  0  0  0  0  0  0  0  0
   -1.9732    2.1913    0.7442 O   0  0  0  0  0  0  0  0  0  0  0  0
    0.5598   -2.8061    0.2894 O   0  0  0  0  0  0  0  0  0  0  0  0
   -0.7935   -0.0357   -2.3748 O   0  0  0  0  0  0  0  0  0  0  0  0
   -3.9599    3.3397    0.5215 O   0  0  0  0  0  0  0  0  0  0  0  0
   -3.1175   -1.2320   -2.4470 O   0  0  0  0  0  0  0  0  0  0  0  0
   -3.5946   -5.1021    0.2621 O   0  0  0  0  0  0  0  0  0  0  0  0
    6.5160   -1.8904    2.1145 O   0  0  0  0  0  0  0  0  0  0  0  0
   -5.8350   -0.1427    2.0508 O   0  0  0  0  0  0  0  0  0  0  0  0
   -6.2005    1.9692    1.2912 O   0  0  0  0  0  0  0  0  0  0  0  0
    1.0689    4.1315   -0.2983 C   0  0  1  0  0  0  0  0  0  0  0  0
    2.5372    3.7248   -0.4249 C   0  0  1  0  0  0  0  0  0  0  0  0
    0.2269    2.9684    0.2314 C   0  0  1  0  0  0  0  0  0  0  0  0
    2.6818    2.4001   -1.1741 C   0  0  2  0  0  0  0  0  0  0  0  0
    1.7314    1.3400   -0.6178 C   0  0  1  0  0  0  0  0  0  0  0  0
   -1.2591    3.3121    0.2558 C   0  0  0  0  0  0  0  0  0  0  0  0
    0.9848   -0.8194   -1.0215 C   0  0  0  0  0  0  0  0  0  0  0  0
    1.3645   -1.7628   -0.1406 C   0  0  0  0  0  0  0  0  0  0  0  0
   -0.3913   -0.8670   -1.5718 C   0  0  0  0  0  0  0  0  0  0  0  0
   -1.2449   -1.9687   -1.1012 C   0  0  0  0  0  0  0  0  0  0  0  0
   -3.3369    2.3338    0.8307 C   0  0  0  0  0  0  0  0  0  0  0  0
   -0.7216   -2.8846   -0.1913 C   0  0  0  0  0  0  0  0  0  0  0  0
    2.7140   -1.7966    0.4508 C   0  0  0  0  0  0  0  0  0  0  0  0
   -2.5587   -2.0995   -1.5578 C   0  0  0  0  0  0  0  0  0  0  0  0
   -3.9374    1.0604    1.3745 C   0  0  0  0  0  0  0  0  0  0  0  0
   -1.5104   -3.9397    0.2684 C   0  0  0  0  0  0  0  0  0  0  0  0
    3.7346   -2.5086   -0.1801 C   0  0  0  0  0  0  0  0  0  0  0  0
    2.9720   -1.1162    1.6411 C   0  0  0  0  0  0  0  0  0  0  0  0
   -3.3457   -3.1553   -1.0963 C   0  0  0  0  0  0  0  0  0  0  0  0
   -2.8228   -4.0737   -0.1850 C   0  0  0  0  0  0  0  0  0  0  0  0
    5.0120   -2.5403    0.3790 C   0  0  0  0  0  0  0  0  0  0  0  0
    4.2497   -1.1479    2.2001 C   0  0  0  0  0  0  0  0  0  0  0  0
   -5.4329    1.0558    1.5522 C   0  0  0  0  0  0  0  0  0  0  0  0
    5.2697   -1.8599    1.5691 C   0  0  0  0  0  0  0  0  0  0  0  0
    0.7014    4.4585   -1.2797 H   0  0  0  0  0  0  0  0  0  0  0  0
    3.0136    3.6700    0.5609 H   0  0  0  0  0  0  0  0  0  0  0  0
    0.5291    2.6983    1.2525 H   0  0  0  0  0  0  0  0  0  0  0  0
    2.5064    2.5504   -2.2466 H   0  0  0  0  0  0  0  0  0  0  0  0
    2.0325    1.0808    0.4026 H   0  0  0  0  0  0  0  0  0  0  0  0
   -1.4514    4.1720    0.9062 H   0  0  0  0  0  0  0  0  0  0  0  0
   -1.6088    3.5357   -0.7595 H   0  0  0  0  0  0  0  0  0  0  0  0
    0.0860    5.6387    0.4678 H   0  0  0  0  0  0  0  0  0  0  0  0
    2.8308    4.8134   -2.0312 H   0  0  0  0  0  0  0  0  0  0  0  0
    4.0707    1.0637   -1.4923 H   0  0  0  0  0  0  0  0  0  0  0  0
   -3.4863    0.8746    2.3555 H   0  0  0  0  0  0  0  0  0  0  0  0
   -3.6825    0.2523    0.6801 H   0  0  0  0  0  0  0  0  0  0  0  0
   -1.0988   -4.6530    0.9782 H   0  0  0  0  0  0  0  0  0  0  0  0
    3.5490   -3.0439   -1.1081 H   0  0  0  0  0  0  0  0  0  0  0  0
    2.1857   -0.5653    2.1516 H   0  0  0  0  0  0  0  0  0  0  0  0
   -4.3695   -3.2641   -1.4464 H   0  0  0  0  0  0  0  0  0  0  0  0
    5.8026   -3.0965   -0.1173 H   0  0  0  0  0  0  0  0  0  0  0  0
    4.4368   -0.6153    3.1287 H   0  0  0  0  0  0  0  0  0  0  0  0
   -2.4881   -0.5333   -2.6824 H   0  0  0  0  0  0  0  0  0  0  0  0
   -3.0751   -5.6387    0.8851 H   0  0  0  0  0  0  0  0  0  0  0  0
    6.5142   -1.3668    2.9343 H   0  0  0  0  0  0  0  0  0  0  0  0
   -6.8075   -0.1791    2.1745 H   0  0  0  0  0  0  0  0  0  0  0  0
  1 17  1  0  0  0  0
  1 19  1  0  0  0  0
  2 19  1  0  0  0  0
  2 21  1  0  0  0  0
  3 15  1  0  0  0  0
  3 46  1  0  0  0  0
  4 16  1  0  0  0  0
  4 47  1  0  0  0  0
  5 18  1  0  0  0  0
  5 48  1  0  0  0  0
  6 20  1  0  0  0  0
  6 25  1  0  0  0  0
  7 22  1  0  0  0  0
  7 26  1  0  0  0  0
  8 23  2  0  0  0  0
  9 25  2  0  0  0  0
 10 28  1  0  0  0  0
 10 57  1  0  0  0  0
 11 34  1  0  0  0  0
 11 58  1  0  0  0  0
 12 38  1  0  0  0  0
 12 59  1  0  0  0  0
 13 37  1  0  0  0  0
 13 60  1  0  0  0  0
 14 37  2  0  0  0  0
 15 16  1  0  0  0  0
 15 17  1  0  0  0  0
 15 39  1  0  0  0  0
 16 18  1  0  0  0  0
 16 40  1  0  0  0  0
 17 20  1  0  0  0  0
 17 41  1  0  0  0  0
 18 19  1  0  0  0  0
 18 42  1  0  0  0  0
 19 43  1  0  0  0  0
 20 44  1  0  0  0  0
 20 45  1  0  0  0  0
 21 22  2  0  0  0  0
 21 23  1  0  0  0  0
 22 27  1  0  0  0  0
 23 24  1  0  0  0  0
 24 26  1  0  0  0  0
 24 28  2  0  0  0  0
 25 29  1  0  0  0  0
 26 30  2  0  0  0  0
 27 31  2  0  0  0  0
 27 32  1  0  0  0  0
 28 33  1  0  0  0  0
 29 37  1  0  0  0  0
 29 49  1  0  0  0  0
 29 50  1  0  0  0  0
 30 34  1  0  0  0  0
 30 51  1  0  0  0  0
 31 35  1  0  0  0  0
 31 52  1  0  0  0  0
 32 36  2  0  0  0  0
 32 53  1  0  0  0  0
 33 34  2  0  0  0  0
 33 54  1  0  0  0  0
 35 38  2  0  0  0  0
 35 55  1  0  0  0  0
 36 38  1  0  0  0  0
 36 56  1  0  0  0  0
M  END
> <PUBCHEM_COMPOUND_CID>
14162699

> <PUBCHEM_CONFORMER_RMSD>
1

> <PUBCHEM_CONFORMER_DIVERSEORDER>
1
15
84
77
113
116
5
82
23
16
8
86
2
10
90
35
91
42
59
34
94
88
29
26
52
78
40
105
44
73
119
4
37
36
19
25
99
108
110
106
98
121
3
18
85
30
74
27
111
117
45
17
13
71
112
21
115
65
114
12
53
81
89
87
104
46
6
9
43
47
69
67
68
80
32
64
11
48
101
76
38
41
96
75
103
54
62
95
20
14
102
107
63
83
70
60
56
61
28
22
58
33
57
49
109
31
120
72
51
79
7
24
55
122
118
92
93
39
66
100
50
97

> <PUBCHEM_MMFF94_PARTIAL_CHARGES>
51
1 -0.56
10 -0.53
11 -0.53
12 -0.53
13 -0.65
14 -0.57
15 0.28
16 0.28
17 0.28
18 0.28
19 0.56
2 -0.36
20 0.28
21 0.09
22 0.05
23 0.47
24 0.09
25 0.66
26 0.08
27 0.03
28 0.08
29 0.12
3 -0.68
30 -0.15
31 -0.15
32 -0.15
33 -0.15
34 0.08
35 -0.15
36 -0.15
37 0.66
38 0.08
4 -0.68
46 0.4
47 0.4
48 0.4
5 -0.68
51 0.15
52 0.15
53 0.15
54 0.15
55 0.15
56 0.15
57 0.45
58 0.45
59 0.45
6 -0.43
60 0.5
7 -0.16
8 -0.57
9 -0.57

> <PUBCHEM_EFFECTIVE_ROTOR_COUNT>
9.2

> <PUBCHEM_PHARMACOPHORE_FEATURES>
22
1 1 acceptor
1 10 donor
1 11 donor
1 12 donor
1 13 acceptor
1 14 acceptor
1 2 acceptor
1 29 anion
1 3 acceptor
1 3 donor
1 4 acceptor
1 4 donor
1 5 acceptor
1 5 donor
1 7 acceptor
1 8 acceptor
1 9 acceptor
3 13 14 37 anion
6 1 15 16 17 18 19 rings
6 24 26 28 30 33 34 rings
6 27 31 32 35 36 38 rings
6 7 21 22 23 24 26 rings

> <PUBCHEM_HEAVY_ATOM_COUNT>
38

> <PUBCHEM_ATOM_DEF_STEREO_COUNT>
5

> <PUBCHEM_ATOM_UDEF_STEREO_COUNT>
0

> <PUBCHEM_BOND_DEF_STEREO_COUNT>
0

> <PUBCHEM_BOND_UDEF_STEREO_COUNT>
0

> <PUBCHEM_ISOTOPIC_ATOM_COUNT>
0

> <PUBCHEM_COMPONENT_COUNT>
1

> <PUBCHEM_CACTVS_TAUTO_COUNT>
57

> <PUBCHEM_CONFORMER_ID>
00D81B0B00000001

> <PUBCHEM_MMFF94_ENERGY>
107.6267

> <PUBCHEM_FEATURE_SELFOVERLAP>
112.083

> <PUBCHEM_SHAPE_FINGERPRINT>
10006869 2 18126008402380033743
10074138 170 17977913866642517834
10653451 467 17482278110564376071
10675989 125 17474955801172615185
1100329 8 18410573959534738911
11115154 58 17411569841290704511
11421498 54 17835525203362724003
12156800 1 17914043454890401033
12608794 3 18336255765790865519
12788726 201 17622168283708215809
131258 38 18040727990647604995
13540713 4 17389353199181585279
13947930 73 18041577879203093859
140371 6 18339345423161240694
14117953 113 18124884460883066205
14955137 171 18191596258944985930
15264996 151 18048038756200273971
15351339 4 17765719409328625809
15475509 84 18337675346977476187
16112460 7 18335699472726042507
16728300 4 17607803898820297451
17627616 140 18193277614108521393
21033648 29 17841696435822537336
21344244 78 17908399683175159746
21796203 349 18048633401756994729
4403749 210 18120643640050096704
469060 322 18193816177121247171
6442390 28 17691681196055197162
9961470 85 18270098228204404641

> <PUBCHEM_SHAPE_MULTIPOLES>
699.85
10.72
7.45
1.94
1.4
3.73
-0.08
-2.79
-7.84
1.3
0.52
0.18
-0.34
-4.28

> <PUBCHEM_SHAPE_SELFOVERLAP>
1525.326

> <PUBCHEM_SHAPE_VOLUME>
375

> <PUBCHEM_COORDINATE_TYPE>
2
5
10

$$$$
