15959354
  -OEChem-03102308513D

 55 58  0     1  0  0  0  0  0999 V2000
    0.6400   -0.3745   -1.3219 O   0  0  0  0  0  0  0  0  0  0  0  0
    4.6431   -3.1739    1.3861 O   0  0  0  0  0  0  0  0  0  0  0  0
    4.2288   -3.5456   -1.4536 O   0  0  0  0  0  0  0  0  0  0  0  0
    1.5710   -2.9559   -2.2744 O   0  0  0  0  0  0  0  0  0  0  0  0
    2.7072   -0.0055    3.3097 O   0  0  0  0  0  0  0  0  0  0  0  0
   -2.2847    1.3586    0.1030 O   0  0  0  0  0  0  0  0  0  0  0  0
   -1.2325   -2.4106   -1.0334 O   0  0  0  0  0  0  0  0  0  0  0  0
   -3.5919   -3.2885   -0.3264 O   0  0  0  0  0  0  0  0  0  0  0  0
   -6.6055   -0.0759    1.4463 O   0  0  0  0  0  0  0  0  0  0  0  0
    2.2517    4.0877    1.5338 O   0  0  0  0  0  0  0  0  0  0  0  0
    2.2477    5.6430   -0.7683 O   0  0  0  0  0  0  0  0  0  0  0  0
    2.9557   -1.4583    1.4297 C   0  0  2  0  0  0  0  0  0  0  0  0
    3.9495   -2.2405    0.5562 C   0  0  2  0  0  0  0  0  0  0  0  0
    2.0823   -0.5423    0.5695 C   0  0  0  0  0  0  0  0  0  0  0  0
    1.3495   -1.3182   -0.5208 C   0  0  2  0  0  0  0  0  0  0  0  0
    3.2433   -3.0058   -0.5678 C   0  0  1  0  0  0  0  0  0  0  0  0
    2.3200   -2.1109   -1.3964 C   0  0  1  0  0  0  0  0  0  0  0  0
    3.6796   -0.6433    2.5053 C   0  0  0  0  0  0  0  0  0  0  0  0
   -0.6213   -0.1324   -0.8225 C   0  0  0  0  0  0  0  0  0  0  0  0
   -1.0359    1.0870   -0.4336 C   0  0  0  0  0  0  0  0  0  0  0  0
   -1.5528   -1.2790   -0.6948 C   0  0  0  0  0  0  0  0  0  0  0  0
   -2.8813   -0.9820   -0.1374 C   0  0  0  0  0  0  0  0  0  0  0  0
   -0.1749    2.2802   -0.5181 C   0  0  0  0  0  0  0  0  0  0  0  0
   -3.1784    0.3273    0.2341 C   0  0  0  0  0  0  0  0  0  0  0  0
   -3.8321   -1.9934    0.0205 C   0  0  0  0  0  0  0  0  0  0  0  0
   -4.4306    0.6342    0.7675 C   0  0  0  0  0  0  0  0  0  0  0  0
    0.6430    2.6282    0.5572 C   0  0  0  0  0  0  0  0  0  0  0  0
   -0.1770    3.0618   -1.6737 C   0  0  0  0  0  0  0  0  0  0  0  0
   -5.0839   -1.6839    0.5536 C   0  0  0  0  0  0  0  0  0  0  0  0
   -5.3828   -0.3728    0.9264 C   0  0  0  0  0  0  0  0  0  0  0  0
    1.4585    3.7568    0.4769 C   0  0  0  0  0  0  0  0  0  0  0  0
    0.6385    4.1905   -1.7539 C   0  0  0  0  0  0  0  0  0  0  0  0
    1.4562    4.5381   -0.6786 C   0  0  0  0  0  0  0  0  0  0  0  0
    2.2953   -2.1687    1.9478 H   0  0  0  0  0  0  0  0  0  0  0  0
    4.7068   -1.5669    0.1376 H   0  0  0  0  0  0  0  0  0  0  0  0
    1.3430   -0.0527    1.2095 H   0  0  0  0  0  0  0  0  0  0  0  0
    2.6856    0.2575    0.1205 H   0  0  0  0  0  0  0  0  0  0  0  0
    0.7010   -2.0426   -0.0176 H   0  0  0  0  0  0  0  0  0  0  0  0
    2.6929   -3.8657   -0.1678 H   0  0  0  0  0  0  0  0  0  0  0  0
    2.9015   -1.4371   -2.0378 H   0  0  0  0  0  0  0  0  0  0  0  0
    4.3255    0.1199    2.0584 H   0  0  0  0  0  0  0  0  0  0  0  0
    4.2882   -1.2869    3.1483 H   0  0  0  0  0  0  0  0  0  0  0  0
    3.9867   -3.7802    1.7699 H   0  0  0  0  0  0  0  0  0  0  0  0
    4.7485   -2.8062   -1.8125 H   0  0  0  0  0  0  0  0  0  0  0  0
    0.9641   -2.3861   -2.7773 H   0  0  0  0  0  0  0  0  0  0  0  0
    3.1837    0.5111    3.9816 H   0  0  0  0  0  0  0  0  0  0  0  0
   -4.6590    1.6570    1.0569 H   0  0  0  0  0  0  0  0  0  0  0  0
    0.6346    2.0441    1.4738 H   0  0  0  0  0  0  0  0  0  0  0  0
   -0.8092    2.8035   -2.5198 H   0  0  0  0  0  0  0  0  0  0  0  0
   -5.8297   -2.4651    0.6797 H   0  0  0  0  0  0  0  0  0  0  0  0
    0.6270    4.7903   -2.6599 H   0  0  0  0  0  0  0  0  0  0  0  0
   -2.6962   -3.3845   -0.6845 H   0  0  0  0  0  0  0  0  0  0  0  0
   -6.6400    0.8749    1.6481 H   0  0  0  0  0  0  0  0  0  0  0  0
    2.7461    4.8938    1.3047 H   0  0  0  0  0  0  0  0  0  0  0  0
    2.1149    6.0579   -1.6379 H   0  0  0  0  0  0  0  0  0  0  0  0
  1 15  1  0  0  0  0
  1 19  1  0  0  0  0
  2 13  1  0  0  0  0
  2 43  1  0  0  0  0
  3 16  1  0  0  0  0
  3 44  1  0  0  0  0
  4 17  1  0  0  0  0
  4 45  1  0  0  0  0
  5 18  1  0  0  0  0
  5 46  1  0  0  0  0
  6 20  1  0  0  0  0
  6 24  1  0  0  0  0
  7 21  2  0  0  0  0
  8 25  1  0  0  0  0
  8 52  1  0  0  0  0
  9 30  1  0  0  0  0
  9 53  1  0  0  0  0
 10 31  1  0  0  0  0
 10 54  1  0  0  0  0
 11 33  1  0  0  0  0
 11 55  1  0  0  0  0
 12 13  1  0  0  0  0
 12 14  1  0  0  0  0
 12 18  1  0  0  0  0
 12 34  1  0  0  0  0
 13 16  1  0  0  0  0
 13 35  1  0  0  0  0
 14 15  1  0  0  0  0
 14 36  1  0  0  0  0
 14 37  1  0  0  0  0
 15 17  1  0  0  0  0
 15 38  1  0  0  0  0
 16 17  1  0  0  0  0
 16 39  1  0  0  0  0
 17 40  1  0  0  0  0
 18 41  1  0  0  0  0
 18 42  1  0  0  0  0
 19 20  2  0  0  0  0
 19 21  1  0  0  0  0
 20 23  1  0  0  0  0
 21 22  1  0  0  0  0
 22 24  1  0  0  0  0
 22 25  2  0  0  0  0
 23 27  2  0  0  0  0
 23 28  1  0  0  0  0
 24 26  2  0  0  0  0
 25 29  1  0  0  0  0
 26 30  1  0  0  0  0
 26 47  1  0  0  0  0
 27 31  1  0  0  0  0
 27 48  1  0  0  0  0
 28 32  2  0  0  0  0
 28 49  1  0  0  0  0
 29 30  2  0  0  0  0
 29 50  1  0  0  0  0
 31 33  2  0  0  0  0
 32 33  1  0  0  0  0
 32 51  1  0  0  0  0
M  END
> <PUBCHEM_COMPOUND_CID>
15959354

> <PUBCHEM_CONFORMER_RMSD>
0.8

> <PUBCHEM_CONFORMER_DIVERSEORDER>
1
40
8
50
31
3
16
30
44
47
13
43
49
34
26
39
32
7
37
41
22
25
19
23
35
15
29
24
4
2
45
14
42
20
33
28
36
48
5
38
46
21
12
27
6
18
11
9
17
10

> <PUBCHEM_MMFF94_PARTIAL_CHARGES>
44
1 -0.36
10 -0.53
11 -0.53
13 0.28
15 0.28
16 0.28
17 0.28
18 0.28
19 0.09
2 -0.68
20 0.05
21 0.47
22 0.09
23 0.03
24 0.08
25 0.08
26 -0.15
27 -0.15
28 -0.15
29 -0.15
3 -0.68
30 0.08
31 0.08
32 -0.15
33 0.08
4 -0.68
43 0.4
44 0.4
45 0.4
46 0.4
47 0.15
48 0.15
49 0.15
5 -0.68
50 0.15
51 0.15
52 0.45
53 0.45
54 0.45
55 0.45
6 -0.16
7 -0.57
8 -0.53
9 -0.53

> <PUBCHEM_EFFECTIVE_ROTOR_COUNT>
5.2

> <PUBCHEM_PHARMACOPHORE_FEATURES>
19
1 1 acceptor
1 10 donor
1 11 donor
1 2 acceptor
1 2 donor
1 3 acceptor
1 3 donor
1 4 acceptor
1 4 donor
1 5 acceptor
1 5 donor
1 6 acceptor
1 7 acceptor
1 8 donor
1 9 donor
6 12 13 14 15 16 17 rings
6 22 24 25 26 29 30 rings
6 23 27 28 31 32 33 rings
6 6 19 20 21 22 24 rings

> <PUBCHEM_HEAVY_ATOM_COUNT>
33

> <PUBCHEM_ATOM_DEF_STEREO_COUNT>
5

> <PUBCHEM_ATOM_UDEF_STEREO_COUNT>
0

> <PUBCHEM_BOND_DEF_STEREO_COUNT>
0

> <PUBCHEM_BOND_UDEF_STEREO_COUNT>
0

> <PUBCHEM_ISOTOPIC_ATOM_COUNT>
0

> <PUBCHEM_COMPONENT_COUNT>
1

> <PUBCHEM_CACTVS_TAUTO_COUNT>
162

> <PUBCHEM_CONFORMER_ID>
00F3853A00000001

> <PUBCHEM_MMFF94_ENERGY>
104.2562

> <PUBCHEM_FEATURE_SELFOVERLAP>
96.483

> <PUBCHEM_SHAPE_FINGERPRINT>
10554248 39 9510357101400963915
11991303 11 8026254021840204833
12156800 1 15335789658553331432
12160290 23 17615947938249459364
12342043 65 17341827625135762094
12422481 6 18123157295239948624
12788726 201 17899712171299840906
13140716 1 18051138291245576869
133893 2 18046326789876086837
13540713 5 18129107895825824951
13642711 20 8408771909931471969
14363568 33 18340755023417939592
14790565 3 17763469812791101661
14955137 171 18342746260123357468
15420108 30 17983290718545302301
15475509 35 17168153368801442739
15664445 248 18340504347440121028
15684970 41 18187088390152182058
15775530 1 18188755245806715469
17980427 23 17917422138606591703
1813 80 18335423435119587995
19309040 13 14906466823910627978
20600515 1 18054803788345788645
20642791 268 18271237339102997545
20739085 24 18343584044807105714
21033648 29 17773585032530950539
21133665 82 17833004011355420108
21421861 104 18336270153810416641
21796203 349 17760418444791050515
22956985 138 18189610725692184850
23366157 5 18189906490177771525
23559900 14 18059309728951686695
3380486 145 17984668213484035916
3411729 13 18192999442167324833
376196 1 17268090337901908765
394222 165 18049165771759168977
4409770 3 17682953298138775397
57527358 35 14276847677670217125
6287921 2 18129087000044876578
6679774 75 17827351387647797312
79837 15 17185039903717647519
9841814 1 18187085078763453387
9981440 41 17689163730754191755

> <PUBCHEM_SHAPE_MULTIPOLES>
614.56
9.44
6.56
1.98
11.65
8.81
-0.84
-9.04
-5.08
-7.61
2.41
-2.17
-0.31
0.18

> <PUBCHEM_SHAPE_SELFOVERLAP>
1351.245

> <PUBCHEM_SHAPE_VOLUME>
328.5

> <PUBCHEM_COORDINATE_TYPE>
2
5
10

$$$$
