193681
  -OEChem-03092320413D

 56 56  0     1  0  0  0  0  0999 V2000
    0.7796    2.2200   -2.7091 O   0  0  0  0  0  0  0  0  0  0  0  0
   -1.8817    1.8800   -2.2953 O   0  0  0  0  0  0  0  0  0  0  0  0
   -0.8425   -1.8733    0.4779 O   0  0  0  0  0  0  0  0  0  0  0  0
    2.6178    0.8960   -1.2563 O   0  0  0  0  0  0  0  0  0  0  0  0
    2.2342   -1.0097    1.6813 O   0  0  0  0  0  0  0  0  0  0  0  0
    0.3634    1.7352   -1.4341 C   0  0  1  0  0  0  0  0  0  0  0  0
   -0.9954    1.1012   -1.5731 C   0  0  0  0  0  0  0  0  0  0  0  0
    1.4249    0.7229   -1.0055 C   0  0  0  0  0  0  0  0  0  0  0  0
    0.3384    2.8959   -0.4382 C   0  0  0  0  0  0  0  0  0  0  0  0
    0.9877   -0.4726   -0.2285 C   0  0  0  0  0  0  0  0  0  0  0  0
   -1.3158   -0.0853   -1.0184 C   0  0  0  0  0  0  0  0  0  0  0  0
    2.6752   -2.3990   -0.2572 C   0  0  1  0  0  0  0  0  0  0  0  0
   -0.3134   -0.8128   -0.2337 C   0  0  0  0  0  0  0  0  0  0  0  0
    1.9946   -1.2634    0.5015 C   0  0  0  0  0  0  0  0  0  0  0  0
   -2.6603   -0.7556   -1.1695 C   0  0  0  0  0  0  0  0  0  0  0  0
    4.1070   -2.6406    0.2450 C   0  0  0  0  0  0  0  0  0  0  0  0
   -0.1980    2.4541    0.8891 C   0  0  0  0  0  0  0  0  0  0  0  0
    1.8295   -3.6612   -0.0975 C   0  0  0  0  0  0  0  0  0  0  0  0
   -3.5512   -0.4600   -0.0072 C   0  0  0  0  0  0  0  0  0  0  0  0
    0.4058    2.5366    2.0900 C   0  0  0  0  0  0  0  0  0  0  0  0
    5.0111   -1.4325    0.0363 C   0  0  0  0  0  0  0  0  0  0  0  0
   -4.4948   -1.2572    0.5300 C   0  0  0  0  0  0  0  0  0  0  0  0
   -0.1881    2.0735    3.3901 C   0  0  0  0  0  0  0  0  0  0  0  0
    1.7794    3.1402    2.2133 C   0  0  0  0  0  0  0  0  0  0  0  0
   -5.3625   -0.9021    1.7041 C   0  0  0  0  0  0  0  0  0  0  0  0
   -4.7449   -2.6303   -0.0349 C   0  0  0  0  0  0  0  0  0  0  0  0
    1.3302    3.3541   -0.3763 H   0  0  0  0  0  0  0  0  0  0  0  0
   -0.3078    3.6990   -0.8181 H   0  0  0  0  0  0  0  0  0  0  0  0
    2.7230   -2.1338   -1.3208 H   0  0  0  0  0  0  0  0  0  0  0  0
   -3.1552   -0.3709   -2.0709 H   0  0  0  0  0  0  0  0  0  0  0  0
   -2.5193   -1.8262   -1.3509 H   0  0  0  0  0  0  0  0  0  0  0  0
    4.1011   -2.9004    1.3107 H   0  0  0  0  0  0  0  0  0  0  0  0
    4.5404   -3.4952   -0.2886 H   0  0  0  0  0  0  0  0  0  0  0  0
   -1.2159    2.0686    0.8930 H   0  0  0  0  0  0  0  0  0  0  0  0
    0.7049    1.4930   -3.3513 H   0  0  0  0  0  0  0  0  0  0  0  0
    0.8688   -3.5630   -0.6115 H   0  0  0  0  0  0  0  0  0  0  0  0
    2.3381   -4.5276   -0.5337 H   0  0  0  0  0  0  0  0  0  0  0  0
    1.6290   -3.8810    0.9569 H   0  0  0  0  0  0  0  0  0  0  0  0
   -3.4474    0.5335    0.4294 H   0  0  0  0  0  0  0  0  0  0  0  0
   -1.4027    2.6579   -2.6284 H   0  0  0  0  0  0  0  0  0  0  0  0
    4.6807   -0.5692    0.6212 H   0  0  0  0  0  0  0  0  0  0  0  0
    6.0330   -1.6720    0.3477 H   0  0  0  0  0  0  0  0  0  0  0  0
    5.0396   -1.1430   -1.0191 H   0  0  0  0  0  0  0  0  0  0  0  0
   -0.1562   -2.2341    1.0624 H   0  0  0  0  0  0  0  0  0  0  0  0
    0.4281    1.2840    3.8321 H   0  0  0  0  0  0  0  0  0  0  0  0
   -0.2547    2.9064    4.0974 H   0  0  0  0  0  0  0  0  0  0  0  0
   -1.1968    1.6705    3.2511 H   0  0  0  0  0  0  0  0  0  0  0  0
    2.4172    2.9452    1.3475 H   0  0  0  0  0  0  0  0  0  0  0  0
    2.3092    2.7086    3.0705 H   0  0  0  0  0  0  0  0  0  0  0  0
    1.7067    4.2203    2.3746 H   0  0  0  0  0  0  0  0  0  0  0  0
   -6.4181   -0.9031    1.4144 H   0  0  0  0  0  0  0  0  0  0  0  0
   -5.1237    0.0924    2.0952 H   0  0  0  0  0  0  0  0  0  0  0  0
   -5.2200   -1.6233    2.5152 H   0  0  0  0  0  0  0  0  0  0  0  0
   -4.3658   -2.7733   -1.0493 H   0  0  0  0  0  0  0  0  0  0  0  0
   -4.2986   -3.3904    0.6145 H   0  0  0  0  0  0  0  0  0  0  0  0
   -5.8230   -2.8213   -0.0886 H   0  0  0  0  0  0  0  0  0  0  0  0
  1  6  1  0  0  0  0
  1 35  1  0  0  0  0
  2  7  1  0  0  0  0
  2 40  1  0  0  0  0
  3 13  1  0  0  0  0
  3 44  1  0  0  0  0
  4  8  2  0  0  0  0
  5 14  2  0  0  0  0
  6  7  1  0  0  0  0
  6  8  1  0  0  0  0
  6  9  1  0  0  0  0
  7 11  2  0  0  0  0
  8 10  1  0  0  0  0
  9 17  1  0  0  0  0
  9 27  1  0  0  0  0
  9 28  1  0  0  0  0
 10 13  2  0  0  0  0
 10 14  1  0  0  0  0
 11 13  1  0  0  0  0
 11 15  1  0  0  0  0
 12 14  1  0  0  0  0
 12 16  1  0  0  0  0
 12 18  1  0  0  0  0
 12 29  1  0  0  0  0
 15 19  1  0  0  0  0
 15 30  1  0  0  0  0
 15 31  1  0  0  0  0
 16 21  1  0  0  0  0
 16 32  1  0  0  0  0
 16 33  1  0  0  0  0
 17 20  2  0  0  0  0
 17 34  1  0  0  0  0
 18 36  1  0  0  0  0
 18 37  1  0  0  0  0
 18 38  1  0  0  0  0
 19 22  2  0  0  0  0
 19 39  1  0  0  0  0
 20 23  1  0  0  0  0
 20 24  1  0  0  0  0
 21 41  1  0  0  0  0
 21 42  1  0  0  0  0
 21 43  1  0  0  0  0
 22 25  1  0  0  0  0
 22 26  1  0  0  0  0
 23 45  1  0  0  0  0
 23 46  1  0  0  0  0
 23 47  1  0  0  0  0
 24 48  1  0  0  0  0
 24 49  1  0  0  0  0
 24 50  1  0  0  0  0
 25 51  1  0  0  0  0
 25 52  1  0  0  0  0
 25 53  1  0  0  0  0
 26 54  1  0  0  0  0
 26 55  1  0  0  0  0
 26 56  1  0  0  0  0
M  END
> <PUBCHEM_COMPOUND_CID>
193681

> <PUBCHEM_CONFORMER_RMSD>
1

> <PUBCHEM_CONFORMER_DIVERSEORDER>
7
330
156
258
213
217
60
148
310
137
333
257
276
131
193
274
119
211
225
245
265
177
128
90
29
337
33
104
162
163
189
106
282
254
146
82
243
39
308
297
185
173
300
62
288
182
275
273
43
250
269
326
190
272
47
166
53
218
67
181
325
322
313
264
165
41
98
303
246
294
222
315
219
277
37
280
336
171
331
65
235
157
289
231
224
51
283
223
194
192
184
242
271
295
321
214
305
180
198
117
102
74
179
266
84
323
318
210
314
316
304
195
221
292
233
83
120
151
42
220
236
167
309
97
91
230
201
11
226
55
302
317
301
284
296
263
121
123
78
248
196
105
290
311
329
228
262
191
144
22
281
328
46
216
232
209
129
21
63
203
34
101
69
136
110
126
59
261
147
307
205
229
237
57
255
89
160
109
312
19
279
124
125
92
259
299
99
133
172
207
253
10
150
268
227
215
335
108
96
188
240
241
140
1
118
285
334
13
145
278
138
45
206
200
5
324
291
77
15
64
85
71
23
87
159
112
30
174
134
175
94
113
153
183
306
256
332
38
267
234
122
238
270
26
70
115
161
20
319
202
286
169
35
25
114
158
100
111
247
197
186
44
260
93
52
139
178
287
14
239
208
204
170
27
36
72
116
320
132
58
95
141
298
212
12
24
152
103
4
199
142
155
18
16
143
135
327
252
49
187
251
130
31
88
32
154
81
48
66
28
107
79
56
50
149
73
176
244
9
54
68
249
80
168
61
86
127
6
8
293
164
40
2
17
76
75
3

> <PUBCHEM_MMFF94_PARTIAL_CHARGES>
28
1 -0.68
10 0.03
11 -0.14
12 0.06
13 0.08
14 0.49
15 0.28
17 -0.29
19 -0.29
2 -0.53
20 -0.28
22 -0.28
23 0.14
24 0.14
25 0.14
26 0.14
3 -0.53
34 0.15
35 0.4
39 0.15
4 -0.57
40 0.45
44 0.45
5 -0.57
6 0.48
7 -0.06
8 0.49
9 0.14

> <PUBCHEM_EFFECTIVE_ROTOR_COUNT>
7.2

> <PUBCHEM_PHARMACOPHORE_FEATURES>
11
1 1 acceptor
1 1 donor
1 18 hydrophobe
1 2 donor
1 21 hydrophobe
1 3 donor
1 4 acceptor
1 5 acceptor
3 20 23 24 hydrophobe
3 22 25 26 hydrophobe
6 6 7 8 10 11 13 rings

> <PUBCHEM_HEAVY_ATOM_COUNT>
26

> <PUBCHEM_ATOM_DEF_STEREO_COUNT>
0

> <PUBCHEM_ATOM_UDEF_STEREO_COUNT>
2

> <PUBCHEM_BOND_DEF_STEREO_COUNT>
0

> <PUBCHEM_BOND_UDEF_STEREO_COUNT>
0

> <PUBCHEM_ISOTOPIC_ATOM_COUNT>
0

> <PUBCHEM_COMPONENT_COUNT>
1

> <PUBCHEM_CACTVS_TAUTO_COUNT>
19

> <PUBCHEM_CONFORMER_ID>
0002F49100000007

> <PUBCHEM_MMFF94_ENERGY>
50.7485

> <PUBCHEM_FEATURE_SELFOVERLAP>
55.835

> <PUBCHEM_SHAPE_FINGERPRINT>
10064457 181 17692805304185224153
11578080 2 18268693048444940629
11582403 64 15979755227305944232
12156800 1 17056997024614309528
13009979 54 18125744312655178362
13135754 10 17555754109072110278
13140716 1 18043520629764185821
13533116 47 18267870661319168787
14817 1 14304527135020980936
14955137 171 18130797775381305958
15238133 3 18058469633675318705
15475509 84 18199480882951214321
16945 1 18187644772846919124
17980427 23 15841257234178805425
17980427 26 17771054183917275437
1813 80 18262536796509011079
19078846 21 17988379121594650025
20510252 161 18192986024552439334
20600515 1 18337123271374508567
23352939 185 18261686904164067118
23419403 2 18268406023610555249
23559900 14 18188202213201493319
2748010 2 17971161838328185669
3052486 1 17343258193010765169
3380486 145 18054754413158868270
35225 105 16625732159883408897
469060 322 17896896352275424770
5895379 119 15982612622425935905

> <PUBCHEM_SHAPE_MULTIPOLES>
505.72
7.48
4.29
2.44
6.07
0.68
-0.36
-8.54
-2.47
-2.48
-1.64
0.37
2.79
0.38

> <PUBCHEM_SHAPE_SELFOVERLAP>
1032.689

> <PUBCHEM_SHAPE_VOLUME>
293.7

> <PUBCHEM_COORDINATE_TYPE>
2
5
10

$$$$
