196915
  -OEChem-03092320423D

 53 53  0     1  0  0  0  0  0999 V2000
    1.1611    2.8867    1.9232 O   0  0  0  0  0  0  0  0  0  0  0  0
   -1.5063    2.3545    1.7192 O   0  0  0  0  0  0  0  0  0  0  0  0
   -0.4258   -2.1586    0.5688 O   0  0  0  0  0  0  0  0  0  0  0  0
    2.9980    1.0938    1.1444 O   0  0  0  0  0  0  0  0  0  0  0  0
    3.0018   -2.1999    1.1962 O   0  0  0  0  0  0  0  0  0  0  0  0
    0.7379    1.9180    0.9662 C   0  0  1  0  0  0  0  0  0  0  0  0
   -0.6126    1.3689    1.3412 C   0  0  0  0  0  0  0  0  0  0  0  0
    0.7112    2.5921   -0.4047 C   0  0  0  0  0  0  0  0  0  0  0  0
    1.8090    0.8281    0.9657 C   0  0  0  0  0  0  0  0  0  0  0  0
   -0.9198    0.0574    1.2798 C   0  0  0  0  0  0  0  0  0  0  0  0
    1.3891   -0.5769    0.6960 C   0  0  0  0  0  0  0  0  0  0  0  0
    0.0911   -0.9031    0.8278 C   0  0  0  0  0  0  0  0  0  0  0  0
   -2.2566   -0.5195    1.6799 C   0  0  0  0  0  0  0  0  0  0  0  0
    2.4075   -1.5732    0.3197 C   0  0  0  0  0  0  0  0  0  0  0  0
    2.6845   -1.7591   -1.1683 C   0  0  0  0  0  0  0  0  0  0  0  0
    0.4400    1.6442   -1.5239 C   0  0  0  0  0  0  0  0  0  0  0  0
   -3.2298   -0.4788    0.5469 C   0  0  0  0  0  0  0  0  0  0  0  0
   -0.5596    1.7070   -2.4240 C   0  0  0  0  0  0  0  0  0  0  0  0
    3.0744   -3.2034   -1.4742 C   0  0  0  0  0  0  0  0  0  0  0  0
    3.7804   -0.7962   -1.6128 C   0  0  0  0  0  0  0  0  0  0  0  0
   -3.8878   -1.5137   -0.0103 C   0  0  0  0  0  0  0  0  0  0  0  0
   -0.7831    0.7192   -3.5338 C   0  0  0  0  0  0  0  0  0  0  0  0
   -1.5567    2.8338   -2.3812 C   0  0  0  0  0  0  0  0  0  0  0  0
   -4.8581   -1.4086   -1.1526 C   0  0  0  0  0  0  0  0  0  0  0  0
   -3.6898   -2.9125    0.5106 C   0  0  0  0  0  0  0  0  0  0  0  0
    0.0339    3.4520   -0.3850 H   0  0  0  0  0  0  0  0  0  0  0  0
    1.6964    3.0417   -0.5966 H   0  0  0  0  0  0  0  0  0  0  0  0
   -2.1257   -1.5047    2.1338 H   0  0  0  0  0  0  0  0  0  0  0  0
   -2.6832    0.0711    2.5013 H   0  0  0  0  0  0  0  0  0  0  0  0
    1.7642   -1.5407   -1.7231 H   0  0  0  0  0  0  0  0  0  0  0  0
    1.1568    0.8407   -1.6603 H   0  0  0  0  0  0  0  0  0  0  0  0
    1.0830    2.4920    2.8089 H   0  0  0  0  0  0  0  0  0  0  0  0
   -3.4303    0.5116    0.1386 H   0  0  0  0  0  0  0  0  0  0  0  0
   -2.3831    1.9631    1.8554 H   0  0  0  0  0  0  0  0  0  0  0  0
    2.2989   -3.8954   -1.1280 H   0  0  0  0  0  0  0  0  0  0  0  0
    3.2054   -3.3514   -2.5511 H   0  0  0  0  0  0  0  0  0  0  0  0
    4.0105   -3.4807   -0.9771 H   0  0  0  0  0  0  0  0  0  0  0  0
    4.0008   -0.9224   -2.6780 H   0  0  0  0  0  0  0  0  0  0  0  0
    4.7063   -0.9632   -1.0511 H   0  0  0  0  0  0  0  0  0  0  0  0
    3.4873    0.2459   -1.4559 H   0  0  0  0  0  0  0  0  0  0  0  0
    0.2933   -2.7415    0.2743 H   0  0  0  0  0  0  0  0  0  0  0  0
   -1.7550    0.2285   -3.4184 H   0  0  0  0  0  0  0  0  0  0  0  0
   -0.7558    1.2236   -4.5049 H   0  0  0  0  0  0  0  0  0  0  0  0
   -0.0145   -0.0609   -3.5398 H   0  0  0  0  0  0  0  0  0  0  0  0
   -1.7853    3.1700   -1.3665 H   0  0  0  0  0  0  0  0  0  0  0  0
   -1.1980    3.6817   -2.9730 H   0  0  0  0  0  0  0  0  0  0  0  0
   -2.5146    2.5109   -2.8054 H   0  0  0  0  0  0  0  0  0  0  0  0
   -4.5247   -2.0258   -1.9931 H   0  0  0  0  0  0  0  0  0  0  0  0
   -4.9479   -0.3776   -1.5105 H   0  0  0  0  0  0  0  0  0  0  0  0
   -5.8533   -1.7433   -0.8431 H   0  0  0  0  0  0  0  0  0  0  0  0
   -3.3637   -2.9691    1.5502 H   0  0  0  0  0  0  0  0  0  0  0  0
   -4.6384   -3.4614    0.4739 H   0  0  0  0  0  0  0  0  0  0  0  0
   -2.9712   -3.4492   -0.1170 H   0  0  0  0  0  0  0  0  0  0  0  0
  1  6  1  0  0  0  0
  1 32  1  0  0  0  0
  2  7  1  0  0  0  0
  2 34  1  0  0  0  0
  3 12  1  0  0  0  0
  3 41  1  0  0  0  0
  4  9  2  0  0  0  0
  5 14  2  0  0  0  0
  6  7  1  0  0  0  0
  6  8  1  0  0  0  0
  6  9  1  0  0  0  0
  7 10  2  0  0  0  0
  8 16  1  0  0  0  0
  8 26  1  0  0  0  0
  8 27  1  0  0  0  0
  9 11  1  0  0  0  0
 10 12  1  0  0  0  0
 10 13  1  0  0  0  0
 11 12  2  0  0  0  0
 11 14  1  0  0  0  0
 13 17  1  0  0  0  0
 13 28  1  0  0  0  0
 13 29  1  0  0  0  0
 14 15  1  0  0  0  0
 15 19  1  0  0  0  0
 15 20  1  0  0  0  0
 15 30  1  0  0  0  0
 16 18  2  0  0  0  0
 16 31  1  0  0  0  0
 17 21  2  0  0  0  0
 17 33  1  0  0  0  0
 18 22  1  0  0  0  0
 18 23  1  0  0  0  0
 19 35  1  0  0  0  0
 19 36  1  0  0  0  0
 19 37  1  0  0  0  0
 20 38  1  0  0  0  0
 20 39  1  0  0  0  0
 20 40  1  0  0  0  0
 21 24  1  0  0  0  0
 21 25  1  0  0  0  0
 22 42  1  0  0  0  0
 22 43  1  0  0  0  0
 22 44  1  0  0  0  0
 23 45  1  0  0  0  0
 23 46  1  0  0  0  0
 23 47  1  0  0  0  0
 24 48  1  0  0  0  0
 24 49  1  0  0  0  0
 24 50  1  0  0  0  0
 25 51  1  0  0  0  0
 25 52  1  0  0  0  0
 25 53  1  0  0  0  0
M  END
> <PUBCHEM_COMPOUND_CID>
196915

> <PUBCHEM_CONFORMER_RMSD>
0.8

> <PUBCHEM_CONFORMER_DIVERSEORDER>
41
308
255
276
249
332
335
236
90
97
316
297
32
194
352
280
117
341
55
115
197
221
226
218
230
171
64
344
102
151
327
166
306
292
95
155
219
100
79
247
360
253
212
268
66
266
81
331
326
336
333
29
133
328
77
130
359
152
156
141
250
234
346
67
246
178
19
52
125
142
305
176
179
134
35
33
99
318
323
76
58
350
105
120
154
319
353
357
180
189
252
355
198
89
339
349
161
338
248
112
78
340
310
118
94
37
258
129
222
264
228
245
91
354
157
123
18
109
314
315
243
38
153
181
229
283
347
126
110
293
309
277
270
82
214
173
86
274
21
304
203
288
298
60
63
138
54
111
273
238
190
168
183
124
272
104
113
13
330
210
148
163
232
279
209
313
57
116
88
199
307
324
22
351
322
282
169
265
356
17
362
61
302
119
177
70
85
93
174
69
159
361
241
213
231
224
271
235
25
257
345
220
244
343
14
47
7
285
4
39
108
71
290
295
149
195
98
225
216
162
242
186
9
8
325
205
204
278
3
217
358
237
53
24
150
300
167
269
275
146
348
160
165
262
27
132
136
40
87
233
188
2
317
114
184
65
44
31
137
26
267
223
128
103
107
145
185
329
68
172
337
15
46
260
200
251
28
284
261
287
84
122
192
158
62
147
296
72
206
1
135
20
303
202
342
263
299
16
50
92
311
45
12
36
289
139
175
164
59
143
294
131
321
56
312
127
6
239
144
193
301
11
254
291
191
196
121
227
182
42
5
23
187
320
101
259
10
281
30
256
96
48
211
334
170
74
51
208
106
83
215
201
73
43
140
80
286
49
75
34
240
207

> <PUBCHEM_MMFF94_PARTIAL_CHARGES>
28
1 -0.68
10 -0.14
11 0.03
12 0.08
13 0.28
14 0.49
15 0.06
16 -0.29
17 -0.29
18 -0.28
2 -0.53
21 -0.28
22 0.14
23 0.14
24 0.14
25 0.14
3 -0.53
31 0.15
32 0.4
33 0.15
34 0.45
4 -0.57
41 0.45
5 -0.57
6 0.48
7 -0.06
8 0.14
9 0.49

> <PUBCHEM_EFFECTIVE_ROTOR_COUNT>
6.2

> <PUBCHEM_PHARMACOPHORE_FEATURES>
10
1 1 acceptor
1 1 donor
1 2 donor
1 3 donor
1 4 acceptor
1 5 acceptor
3 15 19 20 hydrophobe
3 18 22 23 hydrophobe
3 21 24 25 hydrophobe
6 6 7 9 10 11 12 rings

> <PUBCHEM_HEAVY_ATOM_COUNT>
25

> <PUBCHEM_ATOM_DEF_STEREO_COUNT>
0

> <PUBCHEM_ATOM_UDEF_STEREO_COUNT>
1

> <PUBCHEM_BOND_DEF_STEREO_COUNT>
0

> <PUBCHEM_BOND_UDEF_STEREO_COUNT>
0

> <PUBCHEM_ISOTOPIC_ATOM_COUNT>
0

> <PUBCHEM_COMPONENT_COUNT>
1

> <PUBCHEM_CACTVS_TAUTO_COUNT>
19

> <PUBCHEM_CONFORMER_ID>
0003013300000029

> <PUBCHEM_MMFF94_ENERGY>
49.7593

> <PUBCHEM_FEATURE_SELFOVERLAP>
50.759

> <PUBCHEM_SHAPE_FINGERPRINT>
107951 10 16043118437837807036
11578080 2 18188767237313102964
12293681 25 17838309931688622814
12553582 1 18270415905265482467
12617007 42 17749387122191731479
12969540 37 18271810163345144062
14181834 199 18044380658331551081
14817 1 10077592876961796436
14863182 85 17982743161797069234
15210252 30 16588022411818225887
15238133 3 15503470713991560255
16945 1 18266755738477738720
17357779 13 18334011692185625655
20600515 1 18041002885675635920
20602899 9 17398672298722951476
20691752 17 17967260788373959946
21285901 2 18188475952340444551
22889148 1 17536597304953561311
23419403 2 18050529011569546248
238 59 16448717793293555191
25222932 49 16697228316651647887
26353 1 18041575675425596959
2748010 2 18339925900891436848
3493558 16 12624264671166362955
4175511 335 18051416463692818329
46194498 28 17825113863999727831
5081480 168 17822872952022654823
6669772 16 17053597631172315520

> <PUBCHEM_SHAPE_MULTIPOLES>
485.14
6.16
3.81
2.74
3.91
0.27
1.81
-6.35
1.53
-0.34
0.85
0.03
1.79
1.36

> <PUBCHEM_SHAPE_SELFOVERLAP>
993.599

> <PUBCHEM_SHAPE_VOLUME>
280.8

> <PUBCHEM_COORDINATE_TYPE>
2
5
10

$$$$
