19845
  -OEChem-03112307203D

 30 30  0     0  0  0  0  0  0999 V2000
    2.8875    1.7248    0.5703 O   0  0  0  0  0  0  0  0  0  0  0  0
    1.2399   -2.7107   -0.1681 O   0  0  0  0  0  0  0  0  0  0  0  0
   -2.7850    0.1234    0.1688 O   0  0  0  0  0  0  0  0  0  0  0  0
    3.3528   -0.9960    0.3444 O   0  0  0  0  0  0  0  0  0  0  0  0
   -2.1112    2.1576   -0.6719 O   0  0  0  0  0  0  0  0  0  0  0  0
   -0.4957    0.5053   -0.0846 C   0  0  0  0  0  0  0  0  0  0  0  0
    1.8590    0.8682    0.3169 C   0  0  0  0  0  0  0  0  0  0  0  0
    1.0274   -1.3696   -0.0548 C   0  0  0  0  0  0  0  0  0  0  0  0
   -0.2652   -0.8656   -0.1986 C   0  0  0  0  0  0  0  0  0  0  0  0
    0.5663    1.3722    0.1731 C   0  0  0  0  0  0  0  0  0  0  0  0
    2.0895   -0.5029    0.2029 C   0  0  0  0  0  0  0  0  0  0  0  0
   -1.8437    1.0309   -0.2342 C   0  0  0  0  0  0  0  0  0  0  0  0
   -4.1555    0.5250    0.0682 C   0  0  0  0  0  0  0  0  0  0  0  0
   -5.0373   -0.6042    0.5570 C   0  0  0  0  0  0  0  0  0  0  0  0
    3.5705    2.2688   -0.5573 C   0  0  0  0  0  0  0  0  0  0  0  0
    0.1007   -3.5271   -0.4321 C   0  0  0  0  0  0  0  0  0  0  0  0
   -1.1150   -1.5024   -0.4171 H   0  0  0  0  0  0  0  0  0  0  0  0
    0.3958    2.4422    0.2677 H   0  0  0  0  0  0  0  0  0  0  0  0
   -4.3189    1.4170    0.6828 H   0  0  0  0  0  0  0  0  0  0  0  0
   -4.3910    0.7550   -0.9767 H   0  0  0  0  0  0  0  0  0  0  0  0
   -6.0942   -0.3309    0.4934 H   0  0  0  0  0  0  0  0  0  0  0  0
   -4.8693   -1.5087   -0.0369 H   0  0  0  0  0  0  0  0  0  0  0  0
   -4.7990   -0.8572    1.5954 H   0  0  0  0  0  0  0  0  0  0  0  0
    3.3193   -1.9621    0.2332 H   0  0  0  0  0  0  0  0  0  0  0  0
    2.8847    2.8605   -1.1718 H   0  0  0  0  0  0  0  0  0  0  0  0
    4.0205    1.4716   -1.1574 H   0  0  0  0  0  0  0  0  0  0  0  0
    4.3667    2.9235   -0.1925 H   0  0  0  0  0  0  0  0  0  0  0  0
   -0.3464   -3.2950   -1.4048 H   0  0  0  0  0  0  0  0  0  0  0  0
   -0.6272   -3.4831    0.3853 H   0  0  0  0  0  0  0  0  0  0  0  0
    0.4532   -4.5626   -0.4856 H   0  0  0  0  0  0  0  0  0  0  0  0
  1  7  1  0  0  0  0
  1 15  1  0  0  0  0
  2  8  1  0  0  0  0
  2 16  1  0  0  0  0
  3 12  1  0  0  0  0
  3 13  1  0  0  0  0
  4 11  1  0  0  0  0
  4 24  1  0  0  0  0
  5 12  2  0  0  0  0
  6  9  2  0  0  0  0
  6 10  1  0  0  0  0
  6 12  1  0  0  0  0
  7 10  2  0  0  0  0
  7 11  1  0  0  0  0
  8  9  1  0  0  0  0
  8 11  2  0  0  0  0
  9 17  1  0  0  0  0
 10 18  1  0  0  0  0
 13 14  1  0  0  0  0
 13 19  1  0  0  0  0
 13 20  1  0  0  0  0
 14 21  1  0  0  0  0
 14 22  1  0  0  0  0
 14 23  1  0  0  0  0
 15 25  1  0  0  0  0
 15 26  1  0  0  0  0
 15 27  1  0  0  0  0
 16 28  1  0  0  0  0
 16 29  1  0  0  0  0
 16 30  1  0  0  0  0
M  END
> <PUBCHEM_COMPOUND_CID>
19845

> <PUBCHEM_CONFORMER_RMSD>
0.6

> <PUBCHEM_CONFORMER_DIVERSEORDER>
4
3
8
22
18
16
15
13
23
12
24
21
11
9
14
20
7
2
10
6
19
5
1
17

> <PUBCHEM_MMFF94_PARTIAL_CHARGES>
18
1 -0.36
10 -0.15
11 0.08
12 0.63
13 0.28
15 0.28
16 0.28
17 0.15
18 0.15
2 -0.36
24 0.45
3 -0.43
4 -0.53
5 -0.57
6 0.09
7 0.08
8 0.08
9 -0.15

> <PUBCHEM_EFFECTIVE_ROTOR_COUNT>
5

> <PUBCHEM_PHARMACOPHORE_FEATURES>
5
1 1 acceptor
1 2 acceptor
1 4 donor
1 5 acceptor
6 6 7 8 9 10 11 rings

> <PUBCHEM_HEAVY_ATOM_COUNT>
16

> <PUBCHEM_ATOM_DEF_STEREO_COUNT>
0

> <PUBCHEM_ATOM_UDEF_STEREO_COUNT>
0

> <PUBCHEM_BOND_DEF_STEREO_COUNT>
0

> <PUBCHEM_BOND_UDEF_STEREO_COUNT>
0

> <PUBCHEM_ISOTOPIC_ATOM_COUNT>
0

> <PUBCHEM_COMPONENT_COUNT>
1

> <PUBCHEM_CACTVS_TAUTO_COUNT>
3

> <PUBCHEM_CONFORMER_ID>
00004D8500000004

> <PUBCHEM_MMFF94_ENERGY>
59.0882

> <PUBCHEM_FEATURE_SELFOVERLAP>
25.373

> <PUBCHEM_SHAPE_FINGERPRINT>
10493431 412 18196370544380469960
10608611 8 18263075522889035141
10967382 1 18411416232548988290
12553582 1 17115793215789290975
13140716 1 18339915013107357458
13380536 305 18412267216442833526
13583140 156 16879318230519691064
14178342 30 17981599373330034736
14251717 144 18413105048492859375
14648413 74 18120930599293556849
14790565 3 18048889785914933293
15219456 202 18335133159976674365
15309172 13 18339926016787072401
15375462 6 18409446951732347965
16945 1 18196086647252700612
17990270 104 18122058702444561515
193761 8 18195239143200509890
19591789 44 18411984667387026598
20645477 70 18336818702917498007
21501502 16 18267856362686692502
21524375 3 18334293210365470160
221490 88 18337395916030301091
22620623 9 17554627457793482326
2334 1 18339634667791058038
23530152 11 18340769337857900750
23557571 272 17241046492739225445
23559900 14 18193267486638518635
2748010 2 18410011065647857868
33824 294 18410011035820872979
458136 41 18340782488978870987
474229 33 18336827623263891315
4990 188 17774736332389214604
5104073 3 18408604743300760097
5902787 121 17685489854025826411
6438718 38 17629762537533357231
7364860 26 18268710519669702470
81228 2 17619328249331052362
81539 233 18335417976121053509
8272917 22 18270124513577757333
9709674 26 18264490586069788859

> <PUBCHEM_SHAPE_MULTIPOLES>
299.93
6.91
3.09
0.71
7.13
2.58
-0.01
-2.67
0.91
-1.74
-0.62
-0.01
-0.07
0.1

> <PUBCHEM_SHAPE_SELFOVERLAP>
617.92

> <PUBCHEM_SHAPE_VOLUME>
174.7

> <PUBCHEM_COORDINATE_TYPE>
2
5
10

$$$$
