21575008
  -OEChem-03102309162D

133141  0     1  0  0  0  0  0999 V2000
   10.8882    4.0403    0.0000 O   0  0  0  0  0  0  0  0  0  0  0  0
    9.1158    4.9351    0.0000 O   0  0  0  0  0  0  0  0  0  0  0  0
    9.4651   -4.2038    0.0000 O   0  0  0  0  0  0  0  0  0  0  0  0
    7.7331   -4.2038    0.0000 O   0  0  0  0  0  0  0  0  0  0  0  0
    9.4651   -6.2038    0.0000 O   0  0  0  0  0  0  0  0  0  0  0  0
    7.7331   -7.2038    0.0000 O   0  0  0  0  0  0  0  0  0  0  0  0
    6.0010   -6.2038    0.0000 O   0  0  0  0  0  0  0  0  0  0  0  0
   10.3312   -4.7038    0.0000 O   0  0  0  0  0  0  0  0  0  0  0  0
    6.0010   -3.2038    0.0000 O   0  0  0  0  0  0  0  0  0  0  0  0
    5.1350   -4.7038    0.0000 O   0  0  0  0  0  0  0  0  0  0  0  0
   11.1972   -7.2038    0.0000 O   0  0  0  0  0  0  0  0  0  0  0  0
   12.9292   -6.2038    0.0000 O   0  0  0  0  0  0  0  0  0  0  0  0
   12.9292   -4.2038    0.0000 O   0  0  0  0  0  0  0  0  0  0  0  0
    4.2690   -7.2038    0.0000 O   0  0  0  0  0  0  0  0  0  0  0  0
    2.5369   -6.2038    0.0000 O   0  0  0  0  0  0  0  0  0  0  0  0
   12.0632   -2.7038    0.0000 O   0  0  0  0  0  0  0  0  0  0  0  0
    2.5369   -4.2038    0.0000 O   0  0  0  0  0  0  0  0  0  0  0  0
    9.4944    1.9931    0.0000 C   0  0  1  0  0  0  0  0  0  0  0  0
   10.3623    1.4965    0.0000 C   0  0  2  0  0  0  0  0  0  0  0  0
   10.3662    0.4965    0.0000 C   0  0  1  0  0  0  0  0  0  0  0  0
    9.6999    2.9657    0.0000 C   0  0  2  0  0  0  0  0  0  0  0  0
    9.5021   -0.0069    0.0000 C   0  0  1  0  0  0  0  0  0  0  0  0
   10.6882    3.0726    0.0000 C   0  0  2  0  0  0  0  0  0  0  0  0
    9.4901   -1.0484    0.0000 C   0  0  2  0  0  0  0  0  0  0  0  0
   11.0968    2.1664    0.0000 C   0  0  0  0  0  0  0  0  0  0  0  0
    8.6303    1.4898    0.0000 C   0  0  0  0  0  0  0  0  0  0  0  0
    8.6342    0.4898    0.0000 C   0  0  0  0  0  0  0  0  0  0  0  0
    9.2976    3.8683    0.0000 C   0  0  1  0  0  0  0  0  0  0  0  0
   10.3901   -1.5727    0.0000 C   0  0  2  0  0  0  0  0  0  0  0  0
   11.2781   -0.0069    0.0000 C   0  0  0  0  0  0  0  0  0  0  0  0
   10.0305    4.5311    0.0000 C   0  0  1  0  0  0  0  0  0  0  0  0
   11.2902   -1.0484    0.0000 C   0  0  0  0  0  0  0  0  0  0  0  0
    8.6264    2.4898    0.0000 C   0  0  0  0  0  0  0  0  0  0  0  0
    8.5402   -1.5727    0.0000 C   0  0  0  0  0  0  0  0  0  0  0  0
   10.4027   -2.6576    0.0000 C   0  0  0  0  0  0  0  0  0  0  0  0
    8.6260   -0.5451    0.0000 C   0  0  0  0  0  0  0  0  0  0  0  0
    8.5276   -2.6576    0.0000 C   0  0  0  0  0  0  0  0  0  0  0  0
    8.3192    4.0750    0.0000 C   0  0  0  0  0  0  0  0  0  0  0  0
    9.4651   -3.2038    0.0000 C   0  0  2  0  0  0  0  0  0  0  0  0
   10.8378    5.1213    0.0000 C   0  0  0  0  0  0  0  0  0  0  0  0
   10.7303    6.1155    0.0000 C   0  0  0  0  0  0  0  0  0  0  0  0
    9.0083    5.9293    0.0000 C   0  0  0  0  0  0  0  0  0  0  0  0
    9.8155    6.5195    0.0000 C   0  0  1  0  0  0  0  0  0  0  0  0
    9.7080    7.5138    0.0000 C   0  0  0  0  0  0  0  0  0  0  0  0
    8.5991   -4.7038    0.0000 C   0  0  2  0  0  0  0  0  0  0  0  0
    8.5991   -5.7038    0.0000 C   0  0  1  0  0  0  0  0  0  0  0  0
    7.7331   -6.2038    0.0000 C   0  0  2  0  0  0  0  0  0  0  0  0
    6.8671   -4.7038    0.0000 C   0  0  1  0  0  0  0  0  0  0  0  0
    6.8671   -5.7038    0.0000 C   0  0  1  0  0  0  0  0  0  0  0  0
    6.0010   -4.2038    0.0000 C   0  0  0  0  0  0  0  0  0  0  0  0
   10.3312   -5.7038    0.0000 C   0  0  2  0  0  0  0  0  0  0  0  0
   11.1972   -6.2038    0.0000 C   0  0  1  0  0  0  0  0  0  0  0  0
    5.1350   -5.7038    0.0000 C   0  0  2  0  0  0  0  0  0  0  0  0
   12.0632   -5.7038    0.0000 C   0  0  2  0  0  0  0  0  0  0  0  0
   11.1972   -4.2038    0.0000 C   0  0  1  0  0  0  0  0  0  0  0  0
   12.0632   -4.7038    0.0000 C   0  0  1  0  0  0  0  0  0  0  0  0
    4.2690   -6.2038    0.0000 C   0  0  1  0  0  0  0  0  0  0  0  0
    3.4030   -5.7038    0.0000 C   0  0  2  0  0  0  0  0  0  0  0  0
   11.1972   -3.2038    0.0000 C   0  0  0  0  0  0  0  0  0  0  0  0
    4.2690   -4.2038    0.0000 C   0  0  0  0  0  0  0  0  0  0  0  0
    3.4030   -4.7038    0.0000 C   0  0  2  0  0  0  0  0  0  0  0  0
   11.1406    1.1548    0.0000 H   0  0  0  0  0  0  0  0  0  0  0  0
   11.0974    0.9300    0.0000 H   0  0  0  0  0  0  0  0  0  0  0  0
    8.8546    2.8762    0.0000 H   0  0  0  0  0  0  0  0  0  0  0  0
   10.2366   -0.4347    0.0000 H   0  0  0  0  0  0  0  0  0  0  0  0
   11.5330    3.1658    0.0000 H   0  0  0  0  0  0  0  0  0  0  0  0
   11.4642    1.6670    0.0000 H   0  0  0  0  0  0  0  0  0  0  0  0
   11.6321    2.4792    0.0000 H   0  0  0  0  0  0  0  0  0  0  0  0
    8.4160    2.0716    0.0000 H   0  0  0  0  0  0  0  0  0  0  0  0
    8.0201    1.3798    0.0000 H   0  0  0  0  0  0  0  0  0  0  0  0
    8.0232    0.5951    0.0000 H   0  0  0  0  0  0  0  0  0  0  0  0
    8.4244   -0.0936    0.0000 H   0  0  0  0  0  0  0  0  0  0  0  0
    8.9078    3.3862    0.0000 H   0  0  0  0  0  0  0  0  0  0  0  0
   11.1295   -1.9920    0.0000 H   0  0  0  0  0  0  0  0  0  0  0  0
   11.8902   -0.1059    0.0000 H   0  0  0  0  0  0  0  0  0  0  0  0
   11.4804    0.5792    0.0000 H   0  0  0  0  0  0  0  0  0  0  0  0
   11.5060   -1.6297    0.0000 H   0  0  0  0  0  0  0  0  0  0  0  0
   11.8998   -0.9353    0.0000 H   0  0  0  0  0  0  0  0  0  0  0  0
    8.9344    3.0279    0.0000 H   0  0  0  0  0  0  0  0  0  0  0  0
    8.0883    2.7977    0.0000 H   0  0  0  0  0  0  0  0  0  0  0  0
    8.3185    1.9517    0.0000 H   0  0  0  0  0  0  0  0  0  0  0  0
    8.3379   -0.9866    0.0000 H   0  0  0  0  0  0  0  0  0  0  0  0
    7.9281   -1.6717    0.0000 H   0  0  0  0  0  0  0  0  0  0  0  0
   10.6185   -3.2389    0.0000 H   0  0  0  0  0  0  0  0  0  0  0  0
   11.0123   -2.5445    0.0000 H   0  0  0  0  0  0  0  0  0  0  0  0
    8.9380   -0.0093    0.0000 H   0  0  0  0  0  0  0  0  0  0  0  0
    8.0902   -0.2330    0.0000 H   0  0  0  0  0  0  0  0  0  0  0  0
    8.3139   -1.0808    0.0000 H   0  0  0  0  0  0  0  0  0  0  0  0
    7.9180   -2.5445    0.0000 H   0  0  0  0  0  0  0  0  0  0  0  0
    8.3118   -3.2389    0.0000 H   0  0  0  0  0  0  0  0  0  0  0  0
    8.4473    4.6816    0.0000 H   0  0  0  0  0  0  0  0  0  0  0  0
    7.7125    4.2032    0.0000 H   0  0  0  0  0  0  0  0  0  0  0  0
    8.1910    3.4684    0.0000 H   0  0  0  0  0  0  0  0  0  0  0  0
   10.0027   -3.5127    0.0000 H   0  0  0  0  0  0  0  0  0  0  0  0
   11.1112    4.5649    0.0000 H   0  0  0  0  0  0  0  0  0  0  0  0
   11.4333    5.2940    0.0000 H   0  0  0  0  0  0  0  0  0  0  0  0
   11.3489    6.0741    0.0000 H   0  0  0  0  0  0  0  0  0  0  0  0
   10.8785    6.7176    0.0000 H   0  0  0  0  0  0  0  0  0  0  0  0
    8.7348    6.4858    0.0000 H   0  0  0  0  0  0  0  0  0  0  0  0
    8.4128    5.7567    0.0000 H   0  0  0  0  0  0  0  0  0  0  0  0
   10.3160    6.8855    0.0000 H   0  0  0  0  0  0  0  0  0  0  0  0
   10.3244    7.5804    0.0000 H   0  0  0  0  0  0  0  0  0  0  0  0
    9.6414    8.1302    0.0000 H   0  0  0  0  0  0  0  0  0  0  0  0
    9.0916    7.4471    0.0000 H   0  0  0  0  0  0  0  0  0  0  0  0
    8.5991   -4.0838    0.0000 H   0  0  0  0  0  0  0  0  0  0  0  0
    8.5991   -6.3238    0.0000 H   0  0  0  0  0  0  0  0  0  0  0  0
    7.1962   -6.5138    0.0000 H   0  0  0  0  0  0  0  0  0  0  0  0
    6.8671   -4.0838    0.0000 H   0  0  0  0  0  0  0  0  0  0  0  0
    6.3301   -5.3938    0.0000 H   0  0  0  0  0  0  0  0  0  0  0  0
    5.3905   -4.0961    0.0000 H   0  0  0  0  0  0  0  0  0  0  0  0
    5.7890   -4.7864    0.0000 H   0  0  0  0  0  0  0  0  0  0  0  0
    9.7942   -5.3938    0.0000 H   0  0  0  0  0  0  0  0  0  0  0  0
    7.1962   -7.5138    0.0000 H   0  0  0  0  0  0  0  0  0  0  0  0
   11.7341   -6.5138    0.0000 H   0  0  0  0  0  0  0  0  0  0  0  0
    5.1350   -6.3238    0.0000 H   0  0  0  0  0  0  0  0  0  0  0  0
    5.4641   -2.8938    0.0000 H   0  0  0  0  0  0  0  0  0  0  0  0
   12.6002   -5.3938    0.0000 H   0  0  0  0  0  0  0  0  0  0  0  0
   10.6603   -3.8938    0.0000 H   0  0  0  0  0  0  0  0  0  0  0  0
   12.0632   -4.0838    0.0000 H   0  0  0  0  0  0  0  0  0  0  0  0
    3.7320   -6.5138    0.0000 H   0  0  0  0  0  0  0  0  0  0  0  0
   11.7341   -7.5138    0.0000 H   0  0  0  0  0  0  0  0  0  0  0  0
    2.8660   -5.3938    0.0000 H   0  0  0  0  0  0  0  0  0  0  0  0
   10.9851   -2.6211    0.0000 H   0  0  0  0  0  0  0  0  0  0  0  0
   10.5866   -3.3114    0.0000 H   0  0  0  0  0  0  0  0  0  0  0  0
    4.6675   -3.7288    0.0000 H   0  0  0  0  0  0  0  0  0  0  0  0
    3.8705   -3.7288    0.0000 H   0  0  0  0  0  0  0  0  0  0  0  0
    3.4030   -4.0838    0.0000 H   0  0  0  0  0  0  0  0  0  0  0  0
   12.9292   -6.8238    0.0000 H   0  0  0  0  0  0  0  0  0  0  0  0
   13.4662   -4.5138    0.0000 H   0  0  0  0  0  0  0  0  0  0  0  0
    3.7320   -7.5138    0.0000 H   0  0  0  0  0  0  0  0  0  0  0  0
    2.0000   -5.8938    0.0000 H   0  0  0  0  0  0  0  0  0  0  0  0
   12.6002   -3.0138    0.0000 H   0  0  0  0  0  0  0  0  0  0  0  0
    2.5369   -3.5838    0.0000 H   0  0  0  0  0  0  0  0  0  0  0  0
  1 23  1  0  0  0  0
 31  1  1  6  0  0  0
  2 31  1  0  0  0  0
  2 42  1  0  0  0  0
 39  3  1  1  0  0  0
 45  3  1  1  0  0  0
  4 45  1  0  0  0  0
  4 48  1  0  0  0  0
 46  5  1  6  0  0  0
 51  5  1  6  0  0  0
 47  6  1  1  0  0  0
  6113  1  0  0  0  0
 49  7  1  6  0  0  0
 53  7  1  1  0  0  0
  8 51  1  0  0  0  0
  8 55  1  0  0  0  0
  9 50  1  0  0  0  0
  9116  1  0  0  0  0
 10 53  1  0  0  0  0
 10 60  1  0  0  0  0
 52 11  1  1  0  0  0
 11121  1  0  0  0  0
 54 12  1  6  0  0  0
 12128  1  0  0  0  0
 56 13  1  1  0  0  0
 13129  1  0  0  0  0
 57 14  1  6  0  0  0
 14130  1  0  0  0  0
 58 15  1  1  0  0  0
 15131  1  0  0  0  0
 16 59  1  0  0  0  0
 16132  1  0  0  0  0
 61 17  1  1  0  0  0
 17133  1  0  0  0  0
 18 19  1  0  0  0  0
 18 21  1  0  0  0  0
 18 26  1  0  0  0  0
 18 33  1  1  0  0  0
 19 20  1  0  0  0  0
 19 25  1  0  0  0  0
 19 62  1  6  0  0  0
 20 22  1  0  0  0  0
 20 30  1  0  0  0  0
 20 63  1  1  0  0  0
 21 23  1  0  0  0  0
 21 28  1  0  0  0  0
 21 64  1  6  0  0  0
 22 24  1  0  0  0  0
 22 27  1  0  0  0  0
 22 65  1  6  0  0  0
 23 25  1  0  0  0  0
 23 66  1  6  0  0  0
 24 29  1  0  0  0  0
 24 34  1  0  0  0  0
 24 36  1  1  0  0  0
 25 67  1  0  0  0  0
 25 68  1  0  0  0  0
 26 27  1  0  0  0  0
 26 69  1  0  0  0  0
 26 70  1  0  0  0  0
 27 71  1  0  0  0  0
 27 72  1  0  0  0  0
 28 31  1  0  0  0  0
 28 38  1  6  0  0  0
 28 73  1  0  0  0  0
 29 32  1  0  0  0  0
 29 35  1  0  0  0  0
 29 74  1  1  0  0  0
 30 32  1  0  0  0  0
 30 75  1  0  0  0  0
 30 76  1  0  0  0  0
 31 40  1  0  0  0  0
 32 77  1  0  0  0  0
 32 78  1  0  0  0  0
 33 79  1  0  0  0  0
 33 80  1  0  0  0  0
 33 81  1  0  0  0  0
 34 37  1  0  0  0  0
 34 82  1  0  0  0  0
 34 83  1  0  0  0  0
 35 39  1  0  0  0  0
 35 84  1  0  0  0  0
 35 85  1  0  0  0  0
 36 86  1  0  0  0  0
 36 87  1  0  0  0  0
 36 88  1  0  0  0  0
 37 39  1  0  0  0  0
 37 89  1  0  0  0  0
 37 90  1  0  0  0  0
 38 91  1  0  0  0  0
 38 92  1  0  0  0  0
 38 93  1  0  0  0  0
 39 94  1  0  0  0  0
 40 41  1  0  0  0  0
 40 95  1  0  0  0  0
 40 96  1  0  0  0  0
 41 43  1  0  0  0  0
 41 97  1  0  0  0  0
 41 98  1  0  0  0  0
 42 43  1  0  0  0  0
 42 99  1  0  0  0  0
 42100  1  0  0  0  0
 43 44  1  1  0  0  0
 43101  1  0  0  0  0
 44102  1  0  0  0  0
 44103  1  0  0  0  0
 44104  1  0  0  0  0
 45 46  1  0  0  0  0
 45105  1  0  0  0  0
 46 47  1  0  0  0  0
 46106  1  0  0  0  0
 47 49  1  0  0  0  0
 47107  1  0  0  0  0
 48 49  1  0  0  0  0
 48 50  1  1  0  0  0
 48108  1  0  0  0  0
 49109  1  0  0  0  0
 50110  1  0  0  0  0
 50111  1  0  0  0  0
 51 52  1  0  0  0  0
 51112  1  0  0  0  0
 52 54  1  0  0  0  0
 52114  1  0  0  0  0
 53 57  1  0  0  0  0
 53115  1  0  0  0  0
 54 56  1  0  0  0  0
 54117  1  0  0  0  0
 55 56  1  0  0  0  0
 55 59  1  6  0  0  0
 55118  1  0  0  0  0
 56119  1  0  0  0  0
 57 58  1  0  0  0  0
 57120  1  0  0  0  0
 58 61  1  0  0  0  0
 58122  1  0  0  0  0
 59123  1  0  0  0  0
 59124  1  0  0  0  0
 60 61  1  0  0  0  0
 60125  1  0  0  0  0
 60126  1  0  0  0  0
 61127  1  0  0  0  0
M  END
> <PUBCHEM_COMPOUND_CID>
21575008

> <PUBCHEM_COMPOUND_CANONICALIZED>
1

> <PUBCHEM_CACTVS_COMPLEXITY>
1530

> <PUBCHEM_CACTVS_HBOND_ACCEPTOR>
17

> <PUBCHEM_CACTVS_HBOND_DONOR>
9

> <PUBCHEM_CACTVS_ROTATABLE_BOND>
8

> <PUBCHEM_CACTVS_SUBSKEYS>
AAADcfB8PgAAAAAAAAAAAAAAAAAAAaIAAAA0aNEiAAASAGDAAAAAGgAACAAADxSwgAMCCAAABgAAAAAAAAAAAAAAAAAAAAAAAAAREAIAAAAiQAAFAAAHAAHA4PwPgAAAAAAAAADAAAYAACAAAYAADAAAAA==

> <PUBCHEM_IUPAC_OPENEYE_NAME>
(2S,3R,4S,5S,6R)-2-[(2R,3R,4S,5S,6R)-4-hydroxy-6-(hydroxymethyl)-2-[(1R,2S,4S,5'S,6R,7S,8R,9S,12S,13S,16S,18R)-5',7,9,13-tetramethylspiro[5-oxapentacyclo[10.8.0.02,9.04,8.013,18]icosane-6,2'-tetrahydropyran]-16-yl]oxy-5-[(2S,3R,4S,5S)-3,4,5-trihydroxytetrahydropyran-2-yl]oxy-tetrahydropyran-3-yl]oxy-6-(hydroxymethyl)tetrahydropyran-3,4,5-triol

> <PUBCHEM_IUPAC_CAS_NAME>
(2S,3R,4S,5S,6R)-2-[[(2R,3R,4S,5S,6R)-4-hydroxy-6-(hydroxymethyl)-2-[[(1R,2S,4S,5'S,6R,7S,8R,9S,12S,13S,16S,18R)-5',7,9,13-tetramethyl-16-spiro[5-oxapentacyclo[10.8.0.02,9.04,8.013,18]eicosane-6,2'-oxane]yl]oxy]-5-[[(2S,3R,4S,5S)-3,4,5-trihydroxy-2-oxanyl]oxy]-3-oxanyl]oxy]-6-(hydroxymethyl)oxane-3,4,5-triol

> <PUBCHEM_IUPAC_NAME_MARKUP>
(2<I>S</I>,3<I>R</I>,4<I>S</I>,5<I>S</I>,6<I>R</I>)-2-[(2<I>R</I>,3<I>R</I>,4<I>S</I>,5<I>S</I>,6<I>R</I>)-4-hydroxy-6-(hydroxymethyl)-2-[(1<I>R</I>,2<I>S</I>,4<I>S</I>,5&apos;<I>S</I>,6<I>R</I>,7<I>S</I>,8<I>R</I>,9<I>S</I>,12<I>S</I>,13<I>S</I>,16<I>S</I>,18<I>R</I>)-5&apos;,7,9,13-tetramethylspiro[5-oxapentacyclo[10.8.0.0<SUP>2,9</SUP>.0<SUP>4,8</SUP>.0<SUP>13,18</SUP>]icosane-6,2&apos;-oxane]-16-yl]oxy-5-[(2<I>S</I>,3<I>R</I>,4<I>S</I>,5<I>S</I>)-3,4,5-trihydroxyoxan-2-yl]oxyoxan-3-yl]oxy-6-(hydroxymethyl)oxane-3,4,5-triol

> <PUBCHEM_IUPAC_NAME>
(2S,3R,4S,5S,6R)-2-[(2R,3R,4S,5S,6R)-4-hydroxy-6-(hydroxymethyl)-2-[(1R,2S,4S,5'S,6R,7S,8R,9S,12S,13S,16S,18R)-5',7,9,13-tetramethylspiro[5-oxapentacyclo[10.8.0.02,9.04,8.013,18]icosane-6,2'-oxane]-16-yl]oxy-5-[(2S,3R,4S,5S)-3,4,5-trihydroxyoxan-2-yl]oxyoxan-3-yl]oxy-6-(hydroxymethyl)oxane-3,4,5-triol

> <PUBCHEM_IUPAC_SYSTEMATIC_NAME>
(2R,3S,4S,5R,6S)-2-(hydroxymethyl)-6-[(2R,3R,4S,5S,6R)-6-(hydroxymethyl)-4-oxidanyl-2-[(1R,2S,4S,5'S,6R,7S,8R,9S,12S,13S,16S,18R)-5',7,9,13-tetramethylspiro[5-oxapentacyclo[10.8.0.02,9.04,8.013,18]icosane-6,2'-oxane]-16-yl]oxy-5-[(2S,3R,4S,5S)-3,4,5-tris(oxidanyl)oxan-2-yl]oxy-oxan-3-yl]oxy-oxane-3,4,5-triol

> <PUBCHEM_IUPAC_TRADITIONAL_NAME>
(2S,3R,4S,5S,6R)-2-[(2R,3R,4S,5S,6R)-4-hydroxy-6-methylol-2-[(1R,2S,4S,5'S,6R,7S,8R,9S,12S,13S,16S,18R)-5',7,9,13-tetramethylspiro[5-oxapentacyclo[10.8.0.02,9.04,8.013,18]eicosane-6,2'-tetrahydropyran]-16-yl]oxy-5-[(2S,3R,4S,5S)-3,4,5-trihydroxytetrahydropyran-2-yl]oxy-tetrahydropyran-3-yl]oxy-6-methylol-tetrahydropyran-3,4,5-triol

> <PUBCHEM_IUPAC_INCHI>
InChI=1S/C44H72O17/c1-19-7-12-44(55-17-19)20(2)30-27(61-44)14-25-23-6-5-21-13-22(8-10-42(21,3)24(23)9-11-43(25,30)4)56-41-38(60-40-35(52)33(50)32(49)28(15-45)57-40)36(53)37(29(16-46)58-41)59-39-34(51)31(48)26(47)18-54-39/h19-41,45-53H,5-18H2,1-4H3/t19-,20-,21+,22-,23+,24-,25-,26-,27-,28+,29+,30-,31-,32+,33-,34+,35+,36-,37+,38+,39-,40-,41+,42-,43-,44+/m0/s1

> <PUBCHEM_IUPAC_INCHIKEY>
KCJCMMKXYAIXFR-IFBGARPXSA-N

> <PUBCHEM_XLOGP3_AA>
1.2

> <PUBCHEM_EXACT_MASS>
872.47695082

> <PUBCHEM_MOLECULAR_FORMULA>
C44H72O17

> <PUBCHEM_MOLECULAR_WEIGHT>
873.0

> <PUBCHEM_OPENEYE_CAN_SMILES>
CC1CCC2(C(C3C(O2)CC4C3(CCC5C4CCC6C5(CCC(C6)OC7C(C(C(C(O7)CO)OC8C(C(C(CO8)O)O)O)O)OC9C(C(C(C(O9)CO)O)O)O)C)C)C)OC1

> <PUBCHEM_OPENEYE_ISO_SMILES>
C[C@H]1CC[C@@]2([C@H]([C@H]3[C@@H](O2)C[C@@H]4[C@@]3(CC[C@H]5[C@H]4CC[C@H]6[C@@]5(CC[C@@H](C6)O[C@H]7[C@@H]([C@H]([C@@H]([C@H](O7)CO)O[C@H]8[C@@H]([C@H]([C@H](CO8)O)O)O)O)O[C@H]9[C@@H]([C@H]([C@@H]([C@H](O9)CO)O)O)O)C)C)C)OC1

> <PUBCHEM_CACTVS_TPSA>
256

> <PUBCHEM_MONOISOTOPIC_WEIGHT>
872.47695082

> <PUBCHEM_TOTAL_CHARGE>
0

> <PUBCHEM_HEAVY_ATOM_COUNT>
61

> <PUBCHEM_ATOM_DEF_STEREO_COUNT>
26

> <PUBCHEM_ATOM_UDEF_STEREO_COUNT>
0

> <PUBCHEM_BOND_DEF_STEREO_COUNT>
0

> <PUBCHEM_BOND_UDEF_STEREO_COUNT>
0

> <PUBCHEM_ISOTOPIC_ATOM_COUNT>
0

> <PUBCHEM_COMPONENT_COUNT>
1

> <PUBCHEM_CACTVS_TAUTO_COUNT>
-1

> <PUBCHEM_COORDINATE_TYPE>
1
5
255

> <PUBCHEM_BONDANNOTATIONS>
31  1  6
52  11  5
54  12  6
56  13  5
57  14  6
58  15  5
61  17  5
18  33  5
19  62  6
20  63  5
21  64  6
22  65  6
23  66  6
24  36  5
28  38  6
29  74  5
39  3  5
45  3  5
43  44  5
48  50  5
46  5  6
51  5  6
55  59  6
47  6  5
49  7  6
53  7  5

$$$$
