23251195
  -OEChem-03112309573D

 51 53  0     1  0  0  0  0  0999 V2000
   -0.2645    0.2432   -0.3900 O   0  0  0  0  0  0  0  0  0  0  0  0
    0.9185   -5.0941   -0.3934 O   0  0  0  0  0  0  0  0  0  0  0  0
    3.8677    2.7463    0.1183 O   0  0  0  0  0  0  0  0  0  0  0  0
    3.9564   -1.9245   -0.6729 O   0  0  0  0  0  0  0  0  0  0  0  0
    1.5288    3.8909    0.1661 O   0  0  0  0  0  0  0  0  0  0  0  0
   -6.5238    0.5604   -0.2494 O   0  0  0  0  0  0  0  0  0  0  0  0
    0.8342   -2.8696    0.5305 C   0  0  0  0  0  0  0  0  0  0  0  0
    1.1294   -2.1186   -0.7812 C   0  0  0  0  0  0  0  0  0  0  0  0
    0.0866   -4.2072    0.3575 C   0  0  0  0  0  0  0  0  0  0  0  0
    1.8318   -0.8208   -0.5359 C   0  0  0  0  0  0  0  0  0  0  0  0
   -0.9359    1.2889    0.3300 C   0  0  1  0  0  0  0  0  0  0  0  0
    1.1012    0.3517   -0.3386 C   0  0  0  0  0  0  0  0  0  0  0  0
    1.7709    1.5611   -0.1308 C   0  0  0  0  0  0  0  0  0  0  0  0
   -0.5052    2.6649   -0.1740 C   0  0  0  0  0  0  0  0  0  0  0  0
    0.9853    2.8061   -0.0053 C   0  0  0  0  0  0  0  0  0  0  0  0
    3.2260   -0.7878   -0.4929 C   0  0  0  0  0  0  0  0  0  0  0  0
   -0.1578   -4.8407    1.7313 C   0  0  0  0  0  0  0  0  0  0  0  0
   -1.2412   -4.0423   -0.3850 C   0  0  0  0  0  0  0  0  0  0  0  0
    3.1669    1.5962   -0.0860 C   0  0  0  0  0  0  0  0  0  0  0  0
   -2.4295    1.0938    0.1755 C   0  0  0  0  0  0  0  0  0  0  0  0
    3.8915    0.4170   -0.2636 C   0  0  0  0  0  0  0  0  0  0  0  0
   -3.0170    1.1814   -1.0866 C   0  0  0  0  0  0  0  0  0  0  0  0
   -3.2181    0.8269    1.2948 C   0  0  0  0  0  0  0  0  0  0  0  0
   -4.3928    1.0020   -1.2296 C   0  0  0  0  0  0  0  0  0  0  0  0
   -4.5939    0.6475    1.1519 C   0  0  0  0  0  0  0  0  0  0  0  0
   -5.1813    0.7350   -0.1103 C   0  0  0  0  0  0  0  0  0  0  0  0
    4.1659    3.0923    1.4695 C   0  0  0  0  0  0  0  0  0  0  0  0
    1.7900   -3.0617    1.0374 H   0  0  0  0  0  0  0  0  0  0  0  0
    0.2537   -2.2161    1.1957 H   0  0  0  0  0  0  0  0  0  0  0  0
    0.2042   -1.9351   -1.3387 H   0  0  0  0  0  0  0  0  0  0  0  0
    1.7279   -2.7531   -1.4470 H   0  0  0  0  0  0  0  0  0  0  0  0
   -0.6711    1.1844    1.3927 H   0  0  0  0  0  0  0  0  0  0  0  0
   -1.0033    3.4544    0.3999 H   0  0  0  0  0  0  0  0  0  0  0  0
   -0.7184    2.8118   -1.2387 H   0  0  0  0  0  0  0  0  0  0  0  0
   -0.7904   -4.2066    2.3609 H   0  0  0  0  0  0  0  0  0  0  0  0
   -0.6396   -5.8202    1.6319 H   0  0  0  0  0  0  0  0  0  0  0  0
    0.7898   -5.0156    2.2535 H   0  0  0  0  0  0  0  0  0  0  0  0
   -1.7922   -4.9899   -0.4084 H   0  0  0  0  0  0  0  0  0  0  0  0
   -1.8777   -3.2892    0.0908 H   0  0  0  0  0  0  0  0  0  0  0  0
   -1.0854   -3.7659   -1.4329 H   0  0  0  0  0  0  0  0  0  0  0  0
    4.9782    0.4443   -0.2307 H   0  0  0  0  0  0  0  0  0  0  0  0
    0.4444   -5.9370   -0.4953 H   0  0  0  0  0  0  0  0  0  0  0  0
   -2.4187    1.3767   -1.9722 H   0  0  0  0  0  0  0  0  0  0  0  0
   -2.7752    0.7554    2.2845 H   0  0  0  0  0  0  0  0  0  0  0  0
    4.9025   -1.7083   -0.6087 H   0  0  0  0  0  0  0  0  0  0  0  0
   -4.8379    1.0701   -2.2185 H   0  0  0  0  0  0  0  0  0  0  0  0
   -5.2029    0.4397    2.0274 H   0  0  0  0  0  0  0  0  0  0  0  0
    3.2723    3.0488    2.1003 H   0  0  0  0  0  0  0  0  0  0  0  0
    4.9326    2.4195    1.8664 H   0  0  0  0  0  0  0  0  0  0  0  0
    4.5559    4.1137    1.4838 H   0  0  0  0  0  0  0  0  0  0  0  0
   -6.7582    0.6550   -1.1887 H   0  0  0  0  0  0  0  0  0  0  0  0
  1 11  1  0  0  0  0
  1 12  1  0  0  0  0
  2  9  1  0  0  0  0
  2 42  1  0  0  0  0
  3 19  1  0  0  0  0
  3 27  1  0  0  0  0
  4 16  1  0  0  0  0
  4 45  1  0  0  0  0
  5 15  2  0  0  0  0
  6 26  1  0  0  0  0
  6 51  1  0  0  0  0
  7  8  1  0  0  0  0
  7  9  1  0  0  0  0
  7 28  1  0  0  0  0
  7 29  1  0  0  0  0
  8 10  1  0  0  0  0
  8 30  1  0  0  0  0
  8 31  1  0  0  0  0
  9 17  1  0  0  0  0
  9 18  1  0  0  0  0
 10 12  2  0  0  0  0
 10 16  1  0  0  0  0
 11 14  1  0  0  0  0
 11 20  1  0  0  0  0
 11 32  1  0  0  0  0
 12 13  1  0  0  0  0
 13 15  1  0  0  0  0
 13 19  2  0  0  0  0
 14 15  1  0  0  0  0
 14 33  1  0  0  0  0
 14 34  1  0  0  0  0
 16 21  2  0  0  0  0
 17 35  1  0  0  0  0
 17 36  1  0  0  0  0
 17 37  1  0  0  0  0
 18 38  1  0  0  0  0
 18 39  1  0  0  0  0
 18 40  1  0  0  0  0
 19 21  1  0  0  0  0
 20 22  2  0  0  0  0
 20 23  1  0  0  0  0
 21 41  1  0  0  0  0
 22 24  1  0  0  0  0
 22 43  1  0  0  0  0
 23 25  2  0  0  0  0
 23 44  1  0  0  0  0
 24 26  2  0  0  0  0
 24 46  1  0  0  0  0
 25 26  1  0  0  0  0
 25 47  1  0  0  0  0
 27 48  1  0  0  0  0
 27 49  1  0  0  0  0
 27 50  1  0  0  0  0
M  END
> <PUBCHEM_COMPOUND_CID>
23251195

> <PUBCHEM_CONFORMER_RMSD>
0.8

> <PUBCHEM_CONFORMER_DIVERSEORDER>
1
27
31
26
16
25
34
37
21
41
7
36
32
24
15
39
11
12
13
33
19
29
28
9
3
38
17
22
30
14
35
23
40
10
8
6
18
5
20
4
2

> <PUBCHEM_MMFF94_PARTIAL_CHARGES>
32
1 -0.36
10 -0.14
11 0.42
12 0.08
13 0.09
14 0.06
15 0.42
16 0.08
19 0.08
2 -0.68
20 -0.14
21 -0.15
22 -0.15
23 -0.15
24 -0.15
25 -0.15
26 0.08
27 0.28
3 -0.36
4 -0.53
41 0.15
42 0.4
43 0.15
44 0.15
45 0.45
46 0.15
47 0.15
5 -0.57
51 0.45
6 -0.53
8 0.14
9 0.28

> <PUBCHEM_EFFECTIVE_ROTOR_COUNT>
5.6

> <PUBCHEM_PHARMACOPHORE_FEATURES>
11
1 1 acceptor
1 2 acceptor
1 2 donor
1 3 acceptor
1 4 donor
1 5 acceptor
1 6 donor
3 9 17 18 hydrophobe
6 1 11 12 13 14 15 rings
6 10 12 13 16 19 21 rings
6 20 22 23 24 25 26 rings

> <PUBCHEM_HEAVY_ATOM_COUNT>
27

> <PUBCHEM_ATOM_DEF_STEREO_COUNT>
0

> <PUBCHEM_ATOM_UDEF_STEREO_COUNT>
1

> <PUBCHEM_BOND_DEF_STEREO_COUNT>
0

> <PUBCHEM_BOND_UDEF_STEREO_COUNT>
0

> <PUBCHEM_ISOTOPIC_ATOM_COUNT>
0

> <PUBCHEM_COMPONENT_COUNT>
1

> <PUBCHEM_CACTVS_TAUTO_COUNT>
18

> <PUBCHEM_CONFORMER_ID>
0162C8FB00000001

> <PUBCHEM_MMFF94_ENERGY>
88.4232

> <PUBCHEM_FEATURE_SELFOVERLAP>
55.863

> <PUBCHEM_SHAPE_FINGERPRINT>
10074138 170 17834361856200498184
1100329 8 18411133637129606534
114674 6 18338242557021016178
12107183 9 17406000557409418809
12156800 1 17694185131196098811
12236239 1 17561085822008759293
12553582 1 16969148038467480159
13140716 1 18412263943335044474
13540713 4 17912938468076276476
1361 2 18410009962184193193
13692114 37 17911222142592541719
138480 1 17978229357559498711
13911987 19 18190204350307049692
14863182 85 18334587827535996477
15483637 11 18122064462740211975
15927050 60 18339358686521020494
16728300 4 17317857215504177546
17134984 74 18266439037086783551
17138139 8 17556550439591237655
19427546 62 18337954622572241557
19591789 44 18410580543783088918
19930381 70 18265336093241781363
20028762 73 18272367529719904614
20511986 3 17703497823570776121
20645477 70 18408601444444226461
20739085 24 18265070079826355904
21049683 118 18195500787764316970
21197605 99 18197787794100952303
21285901 2 17458908120444790133
21421861 104 17759816839904637473
21796203 349 17834707918479187819
23558518 356 17612305664359566296
23559900 14 17976529512577519821
283562 15 18124324809543707728
3178227 256 18337121050987140818
3383291 50 18337388220272353098
350125 39 17475518755927821600
3882209 13 16963760474921306539
4616759 239 15963679779383975226
463206 1 18264214604287976843
5309563 4 17978510836794363799
653340 110 17836642303197802480
7399639 24 18261100860309178293
9777508 108 18051692436505056584

> <PUBCHEM_SHAPE_MULTIPOLES>
520.43
9.04
6.36
1.13
10.8
9.62
0.3
-6.74
-0.05
-3.94
1.64
0.36
0.25
1.17

> <PUBCHEM_SHAPE_SELFOVERLAP>
1121.79

> <PUBCHEM_SHAPE_VOLUME>
286.4

> <PUBCHEM_COORDINATE_TYPE>
2
5
10

$$$$
