23250007
  -OEChem-03102308333D

 51 52  0     0  0  0  0  0  0999 V2000
    5.8365    2.5948    0.8166 O   0  0  0  0  0  0  0  0  0  0  0  0
    0.7238    0.9701   -0.5199 O   0  0  0  0  0  0  0  0  0  0  0  0
    4.2895   -1.4740    1.5342 O   0  0  0  0  0  0  0  0  0  0  0  0
    0.4760   -3.7967   -0.1007 O   0  0  0  0  0  0  0  0  0  0  0  0
   -0.9075   -1.9905   -2.0446 O   0  0  0  0  0  0  0  0  0  0  0  0
   -7.4277    2.3068    1.1573 O   0  0  0  0  0  0  0  0  0  0  0  0
    4.9575    2.7168   -0.3036 C   0  0  0  0  0  0  0  0  0  0  0  0
    4.1758    1.3959   -0.4537 C   0  0  0  0  0  0  0  0  0  0  0  0
    3.2635    1.0602    0.7345 C   0  0  0  0  0  0  0  0  0  0  0  0
    2.5144   -0.2301    0.5085 C   0  0  0  0  0  0  0  0  0  0  0  0
    4.0371    3.9168   -0.0695 C   0  0  0  0  0  0  0  0  0  0  0  0
    5.8149    2.9512   -1.5518 C   0  0  0  0  0  0  0  0  0  0  0  0
    1.2666   -0.2147   -0.1148 C   0  0  0  0  0  0  0  0  0  0  0  0
    3.0718   -1.4394    0.9236 C   0  0  0  0  0  0  0  0  0  0  0  0
    0.5763   -1.4088   -0.3229 C   0  0  0  0  0  0  0  0  0  0  0  0
    2.3813   -2.6335    0.7155 C   0  0  0  0  0  0  0  0  0  0  0  0
    1.1336   -2.6182    0.0923 C   0  0  0  0  0  0  0  0  0  0  0  0
   -0.7290   -1.3944   -0.9743 C   0  0  0  0  0  0  0  0  0  0  0  0
   -1.8398   -0.6152   -0.3330 C   0  0  0  0  0  0  0  0  0  0  0  0
   -3.0482   -0.5520   -0.9115 C   0  0  0  0  0  0  0  0  0  0  0  0
    1.1237   -4.9816    0.3567 C   0  0  0  0  0  0  0  0  0  0  0  0
   -4.1955    0.1971   -0.3695 C   0  0  0  0  0  0  0  0  0  0  0  0
   -4.2241    0.5490    0.9799 C   0  0  0  0  0  0  0  0  0  0  0  0
   -5.2532    0.5543   -1.2060 C   0  0  0  0  0  0  0  0  0  0  0  0
   -5.3102    1.2579    1.4930 C   0  0  0  0  0  0  0  0  0  0  0  0
   -6.3393    1.2632   -0.6929 C   0  0  0  0  0  0  0  0  0  0  0  0
   -6.3678    1.6150    0.6566 C   0  0  0  0  0  0  0  0  0  0  0  0
    4.8930    0.5731   -0.5796 H   0  0  0  0  0  0  0  0  0  0  0  0
    3.5799    1.4324   -1.3751 H   0  0  0  0  0  0  0  0  0  0  0  0
    2.5598    1.8700    0.9537 H   0  0  0  0  0  0  0  0  0  0  0  0
    3.8658    0.9794    1.6485 H   0  0  0  0  0  0  0  0  0  0  0  0
    3.5512    3.8680    0.9104 H   0  0  0  0  0  0  0  0  0  0  0  0
    3.2683    3.9918   -0.8452 H   0  0  0  0  0  0  0  0  0  0  0  0
    4.6118    4.8505   -0.0671 H   0  0  0  0  0  0  0  0  0  0  0  0
    6.5179    2.1239   -1.7021 H   0  0  0  0  0  0  0  0  0  0  0  0
    6.4235    3.8565   -1.4459 H   0  0  0  0  0  0  0  0  0  0  0  0
    5.1987    3.0521   -2.4513 H   0  0  0  0  0  0  0  0  0  0  0  0
    6.3299    3.4283    0.9039 H   0  0  0  0  0  0  0  0  0  0  0  0
    2.8648   -3.5415    1.0597 H   0  0  0  0  0  0  0  0  0  0  0  0
    1.4136    1.6369   -0.6605 H   0  0  0  0  0  0  0  0  0  0  0  0
    4.5151   -2.3948    1.7503 H   0  0  0  0  0  0  0  0  0  0  0  0
   -1.6023   -0.1156    0.5989 H   0  0  0  0  0  0  0  0  0  0  0  0
   -3.2301   -1.0573   -1.8569 H   0  0  0  0  0  0  0  0  0  0  0  0
    2.0623   -5.1625   -0.1784 H   0  0  0  0  0  0  0  0  0  0  0  0
    1.2544   -4.9778    1.4442 H   0  0  0  0  0  0  0  0  0  0  0  0
    0.4604   -5.8208    0.1219 H   0  0  0  0  0  0  0  0  0  0  0  0
   -3.4342    0.2752    1.6729 H   0  0  0  0  0  0  0  0  0  0  0  0
   -5.2473    0.2896   -2.2606 H   0  0  0  0  0  0  0  0  0  0  0  0
   -5.3294    1.5256    2.5461 H   0  0  0  0  0  0  0  0  0  0  0  0
   -7.1569    1.5358   -1.3549 H   0  0  0  0  0  0  0  0  0  0  0  0
   -8.0650    2.4688    0.4405 H   0  0  0  0  0  0  0  0  0  0  0  0
  1  7  1  0  0  0  0
  1 38  1  0  0  0  0
  2 13  1  0  0  0  0
  2 40  1  0  0  0  0
  3 14  1  0  0  0  0
  3 41  1  0  0  0  0
  4 17  1  0  0  0  0
  4 21  1  0  0  0  0
  5 18  2  0  0  0  0
  6 27  1  0  0  0  0
  6 51  1  0  0  0  0
  7  8  1  0  0  0  0
  7 11  1  0  0  0  0
  7 12  1  0  0  0  0
  8  9  1  0  0  0  0
  8 28  1  0  0  0  0
  8 29  1  0  0  0  0
  9 10  1  0  0  0  0
  9 30  1  0  0  0  0
  9 31  1  0  0  0  0
 10 13  2  0  0  0  0
 10 14  1  0  0  0  0
 11 32  1  0  0  0  0
 11 33  1  0  0  0  0
 11 34  1  0  0  0  0
 12 35  1  0  0  0  0
 12 36  1  0  0  0  0
 12 37  1  0  0  0  0
 13 15  1  0  0  0  0
 14 16  2  0  0  0  0
 15 17  2  0  0  0  0
 15 18  1  0  0  0  0
 16 17  1  0  0  0  0
 16 39  1  0  0  0  0
 18 19  1  0  0  0  0
 19 20  2  0  0  0  0
 19 42  1  0  0  0  0
 20 22  1  0  0  0  0
 20 43  1  0  0  0  0
 21 44  1  0  0  0  0
 21 45  1  0  0  0  0
 21 46  1  0  0  0  0
 22 23  2  0  0  0  0
 22 24  1  0  0  0  0
 23 25  1  0  0  0  0
 23 47  1  0  0  0  0
 24 26  2  0  0  0  0
 24 48  1  0  0  0  0
 25 27  2  0  0  0  0
 25 49  1  0  0  0  0
 26 27  1  0  0  0  0
 26 50  1  0  0  0  0
M  END
> <PUBCHEM_COMPOUND_CID>
23250007

> <PUBCHEM_CONFORMER_RMSD>
0.8

> <PUBCHEM_CONFORMER_DIVERSEORDER>
4
118
119
32
127
128
24
73
20
106
87
96
66
91
67
92
80
77
95
64
6
39
61
109
18
50
12
13
90
60
41
72
28
75
16
62
30
3
86
125
25
111
35
27
120
68
58
48
63
81
1
101
29
43
108
93
26
113
55
47
70
124
107
56
44
8
36
103
9
57
79
52
78
97
104
34
110
83
21
5
17
84
23
53
69
114
105
71
117
11
85
102
115
116
94
54
31
65
51
88
122
42
89
14
82
76
98
22
38
123
112
126
74
46
100
99
19
15
33
59
45
10
7
49
40
121
37
2

> <PUBCHEM_MMFF94_PARTIAL_CHARGES>
35
1 -0.68
10 -0.14
13 0.08
14 0.08
15 0.09
16 -0.15
17 0.08
18 0.47
19 -0.14
2 -0.53
20 -0.18
21 0.28
22 0.03
23 -0.15
24 -0.15
25 -0.15
26 -0.15
27 0.08
3 -0.53
38 0.4
39 0.15
4 -0.36
40 0.45
41 0.45
42 0.15
43 0.15
47 0.15
48 0.15
49 0.15
5 -0.57
50 0.15
51 0.45
6 -0.53
7 0.28
9 0.14

> <PUBCHEM_EFFECTIVE_ROTOR_COUNT>
7

> <PUBCHEM_PHARMACOPHORE_FEATURES>
10
1 1 acceptor
1 1 donor
1 2 donor
1 3 donor
1 4 acceptor
1 5 acceptor
1 6 donor
3 7 11 12 hydrophobe
6 10 13 14 15 16 17 rings
6 22 23 24 25 26 27 rings

> <PUBCHEM_HEAVY_ATOM_COUNT>
27

> <PUBCHEM_ATOM_DEF_STEREO_COUNT>
0

> <PUBCHEM_ATOM_UDEF_STEREO_COUNT>
0

> <PUBCHEM_BOND_DEF_STEREO_COUNT>
1

> <PUBCHEM_BOND_UDEF_STEREO_COUNT>
0

> <PUBCHEM_ISOTOPIC_ATOM_COUNT>
0

> <PUBCHEM_COMPONENT_COUNT>
1

> <PUBCHEM_CACTVS_TAUTO_COUNT>
57

> <PUBCHEM_CONFORMER_ID>
0162C45700000004

> <PUBCHEM_MMFF94_ENERGY>
93.1632

> <PUBCHEM_FEATURE_SELFOVERLAP>
50.748

> <PUBCHEM_SHAPE_FINGERPRINT>
10411042 1 17761769564441536106
10670039 82 17060351694804780721
10816530 23 18408044009572030219
11505856 67 17395314849947220262
1200032 147 18261394472810466664
12390115 104 18266746959490706206
12422481 6 17241033401315261316
12788726 201 17489597718869262601
13540713 5 18193534861591862338
13885169 86 18265900331211332981
13955234 65 18190180096400531491
14251764 75 18411421747461498473
14347332 77 8935006971167153419
14790565 3 18337389456462824116
14840074 17 18261113019019033221
14849402 71 18266178340296979378
15238133 3 17988914583498985712
15475509 35 16081638955996905938
15475509 8 18200883855904790974
1979834 28 17968103005696527245
20511986 3 17629456646215590435
20739085 24 18259985951033157220
21033648 144 18187355558924521551
21424621 283 18271240655382766000
21756936 100 18196932390927833070
23845131 108 18261671570931010115
283562 15 17251730756601665490
3178227 256 18188489069661540938
38570 142 18341624736592731820
397830 11 18040726874693754881
4058900 60 18410864260611207699
474 4 18412256216747232627
5104073 3 18114177557995295155
57724786 102 18340488872483185341
59682541 52 15984834709281717044
6034566 193 18262800812168759117
633830 44 18343299275421999318
636775 72 17693932295832437920
77188 2 17689153413911391990

> <PUBCHEM_SHAPE_MULTIPOLES>
520.43
16.09
4.96
1.35
19
3.36
-0.13
-21.02
2.35
-7.36
0.15
0.52
-0.13
-2.57

> <PUBCHEM_SHAPE_SELFOVERLAP>
1103.078

> <PUBCHEM_SHAPE_VOLUME>
292.1

> <PUBCHEM_COORDINATE_TYPE>
2
5
10

$$$$
