23251201
  -OEChem-03112310013D

 37 39  0     0  0  0  0  0  0999 V2000
    1.4592    1.8579    0.9082 O   0  0  0  0  0  0  0  0  0  0  0  0
    2.4391   -2.7397   -0.2334 O   0  0  0  0  0  0  0  0  0  0  0  0
    5.4837    0.7955   -1.2329 O   0  0  0  0  0  0  0  0  0  0  0  0
    0.5192   -1.7771    1.8758 O   0  0  0  0  0  0  0  0  0  0  0  0
   -6.8646    1.0219   -1.1027 O   0  0  0  0  0  0  0  0  0  0  0  0
    2.1956    0.8310    0.3978 C   0  0  0  0  0  0  0  0  0  0  0  0
    3.3920    1.3105   -0.1253 C   0  0  0  0  0  0  0  0  0  0  0  0
    1.8220   -0.5117    0.3907 C   0  0  0  0  0  0  0  0  0  0  0  0
    2.7287   -1.4061   -0.1860 C   0  0  0  0  0  0  0  0  0  0  0  0
    4.2895    0.3933   -0.6996 C   0  0  0  0  0  0  0  0  0  0  0  0
    3.9412   -0.9643   -0.7216 C   0  0  0  0  0  0  0  0  0  0  0  0
    3.3702    2.7144    0.0857 C   0  0  0  0  0  0  0  0  0  0  0  0
    0.5559   -0.9464    0.9541 C   0  0  0  0  0  0  0  0  0  0  0  0
    2.1787    2.9938    0.7139 C   0  0  0  0  0  0  0  0  0  0  0  0
   -0.7184   -0.3933    0.3779 C   0  0  0  0  0  0  0  0  0  0  0  0
   -3.2088   -0.3128    0.3398 C   0  0  0  0  0  0  0  0  0  0  0  0
   -1.9104   -0.7875    0.8497 C   0  0  0  0  0  0  0  0  0  0  0  0
   -3.2808    0.8781   -0.3828 C   0  0  0  0  0  0  0  0  0  0  0  0
   -4.3656   -1.0550    0.5781 C   0  0  0  0  0  0  0  0  0  0  0  0
    1.7435   -3.2080   -1.3853 C   0  0  0  0  0  0  0  0  0  0  0  0
   -4.5093    1.3269   -0.8671 C   0  0  0  0  0  0  0  0  0  0  0  0
   -5.5944   -0.6061    0.0939 C   0  0  0  0  0  0  0  0  0  0  0  0
   -5.6661    0.5849   -0.6287 C   0  0  0  0  0  0  0  0  0  0  0  0
    4.6235   -1.6891   -1.1615 H   0  0  0  0  0  0  0  0  0  0  0  0
    4.1292    3.4340   -0.1868 H   0  0  0  0  0  0  0  0  0  0  0  0
    1.7186    3.9037    1.0706 H   0  0  0  0  0  0  0  0  0  0  0  0
   -0.6079    0.3020   -0.4462 H   0  0  0  0  0  0  0  0  0  0  0  0
   -1.9673   -1.5133    1.6572 H   0  0  0  0  0  0  0  0  0  0  0  0
    5.9519    0.0151   -1.5759 H   0  0  0  0  0  0  0  0  0  0  0  0
   -2.4107    1.4988   -0.5751 H   0  0  0  0  0  0  0  0  0  0  0  0
   -4.3280   -1.9863    1.1380 H   0  0  0  0  0  0  0  0  0  0  0  0
    1.5650   -4.2800   -1.2653 H   0  0  0  0  0  0  0  0  0  0  0  0
    2.3465   -3.0534   -2.2858 H   0  0  0  0  0  0  0  0  0  0  0  0
    0.7779   -2.7036   -1.4904 H   0  0  0  0  0  0  0  0  0  0  0  0
   -4.5603    2.2575   -1.4259 H   0  0  0  0  0  0  0  0  0  0  0  0
   -6.4882   -1.1937    0.2856 H   0  0  0  0  0  0  0  0  0  0  0  0
   -7.5554    0.3870   -0.8462 H   0  0  0  0  0  0  0  0  0  0  0  0
  1  6  1  0  0  0  0
  1 14  1  0  0  0  0
  2  9  1  0  0  0  0
  2 20  1  0  0  0  0
  3 10  1  0  0  0  0
  3 29  1  0  0  0  0
  4 13  2  0  0  0  0
  5 23  1  0  0  0  0
  5 37  1  0  0  0  0
  6  7  2  0  0  0  0
  6  8  1  0  0  0  0
  7 10  1  0  0  0  0
  7 12  1  0  0  0  0
  8  9  2  0  0  0  0
  8 13  1  0  0  0  0
  9 11  1  0  0  0  0
 10 11  2  0  0  0  0
 11 24  1  0  0  0  0
 12 14  2  0  0  0  0
 12 25  1  0  0  0  0
 13 15  1  0  0  0  0
 14 26  1  0  0  0  0
 15 17  2  0  0  0  0
 15 27  1  0  0  0  0
 16 17  1  0  0  0  0
 16 18  2  0  0  0  0
 16 19  1  0  0  0  0
 17 28  1  0  0  0  0
 18 21  1  0  0  0  0
 18 30  1  0  0  0  0
 19 22  2  0  0  0  0
 19 31  1  0  0  0  0
 20 32  1  0  0  0  0
 20 33  1  0  0  0  0
 20 34  1  0  0  0  0
 21 23  2  0  0  0  0
 21 35  1  0  0  0  0
 22 23  1  0  0  0  0
 22 36  1  0  0  0  0
M  END
> <PUBCHEM_COMPOUND_CID>
23251201

> <PUBCHEM_CONFORMER_RMSD>
0.6

> <PUBCHEM_CONFORMER_DIVERSEORDER>
1
44
18
35
17
8
21
5
29
43
12
25
22
27
33
6
23
9
3
34
24
37
4
41
19
11
14
16
39
2
26
32
42
36
15
13
30
20
40
7
10
45
31
38
46
28

> <PUBCHEM_MMFF94_PARTIAL_CHARGES>
33
1 -0.28
10 0.08
11 -0.15
12 -0.15
13 0.47
14 -0.01
15 -0.14
16 0.03
17 -0.18
18 -0.15
19 -0.15
2 -0.36
20 0.28
21 -0.15
22 -0.15
23 0.08
24 0.15
25 0.15
26 0.15
27 0.15
28 0.15
29 0.45
3 -0.53
30 0.15
31 0.15
35 0.15
36 0.15
37 0.45
4 -0.57
5 -0.53
6 0.14
8 0.09
9 0.08

> <PUBCHEM_EFFECTIVE_ROTOR_COUNT>
4

> <PUBCHEM_PHARMACOPHORE_FEATURES>
8
1 1 acceptor
1 2 acceptor
1 3 donor
1 4 acceptor
1 5 donor
5 1 6 7 12 14 rings
6 16 18 19 21 22 23 rings
6 6 7 8 9 10 11 rings

> <PUBCHEM_HEAVY_ATOM_COUNT>
23

> <PUBCHEM_ATOM_DEF_STEREO_COUNT>
0

> <PUBCHEM_ATOM_UDEF_STEREO_COUNT>
0

> <PUBCHEM_BOND_DEF_STEREO_COUNT>
1

> <PUBCHEM_BOND_UDEF_STEREO_COUNT>
0

> <PUBCHEM_ISOTOPIC_ATOM_COUNT>
0

> <PUBCHEM_COMPONENT_COUNT>
1

> <PUBCHEM_CACTVS_TAUTO_COUNT>
10

> <PUBCHEM_CONFORMER_ID>
0162C90100000001

> <PUBCHEM_MMFF94_ENERGY>
72.239

> <PUBCHEM_FEATURE_SELFOVERLAP>
40.7

> <PUBCHEM_SHAPE_FINGERPRINT>
10498660 4 17894623743398282037
10693767 8 17845663543133924566
11595378 159 14852155196836254301
12403259 415 18261117434381881289
12730499 353 18337398226617172659
12769317 202 18410008849149412160
13402501 40 18260547839755571125
13836976 161 17918274246721883550
14528608 73 18334849537811331535
14931854 50 18410299068738073204
15183329 4 18272370833272064585
15210252 30 17748832929492809604
15475509 35 13541910028378082638
15961568 22 17676490574638038973
16989378 47 16772135569586426214
17844677 252 18341899559182188649
20645477 70 18343306950401780639
21033648 29 18041560351151356049
21637258 2 15625671505670242494
221357 26 18412543189371791845
22224240 67 7997683156906197572
22289505 5 18409446951505286732
22393880 68 18200313345975297062
23557571 272 17822586009484251419
23559900 14 18413103974713885057
238 59 18342186604283154538
3009799 131 18413112784335568956
3060560 45 18273219711919602958
34797466 226 18410290303616650431
3545911 37 18334016112155333497
4072396 5 18409157810871757138
46194498 28 18413107238857362231
495365 180 18200588215555855832
5104073 3 17895189988002784505
5281201 14 18339925922513790303
5312625 73 18409450323624384787
53794403 172 17750804444215073317
59682541 52 18200016362573002037
59755656 215 18335139795241879573
6442390 28 17894910771371989747
7808743 9 17386295427162962564

> <PUBCHEM_SHAPE_MULTIPOLES>
443.98
13.09
2.9
1.17
18.68
0.17
0.07
-4
-5.06
-3.53
-0.22
-0.03
0.31
1.42

> <PUBCHEM_SHAPE_SELFOVERLAP>
979.28

> <PUBCHEM_SHAPE_VOLUME>
240.4

> <PUBCHEM_COORDINATE_TYPE>
2
5
10

$$$$
