23251204
  -OEChem-03102308403D

 49 51  0     1  0  0  0  0  0999 V2000
   -1.1147    1.1871    0.5850 O   0  0  0  0  0  0  0  0  0  0  0  0
   -3.4682    2.7171    1.5049 O   0  0  0  0  0  0  0  0  0  0  0  0
   -5.1414   -0.5320   -1.4932 O   0  0  0  0  0  0  0  0  0  0  0  0
   -1.7968   -3.4855    0.1256 O   0  0  0  0  0  0  0  0  0  0  0  0
   -0.1115   -1.9712    2.0634 O   0  0  0  0  0  0  0  0  0  0  0  0
    7.0756    1.0301   -1.1874 O   0  0  0  0  0  0  0  0  0  0  0  0
   -1.4270    2.5295    0.1630 C   0  0  0  0  0  0  0  0  0  0  0  0
   -2.9465    2.8013    0.1758 C   0  0  1  0  0  0  0  0  0  0  0  0
   -3.7064    1.7902   -0.6775 C   0  0  0  0  0  0  0  0  0  0  0  0
   -3.1809    0.4004   -0.4548 C   0  0  0  0  0  0  0  0  0  0  0  0
   -1.9366    0.1841    0.1467 C   0  0  0  0  0  0  0  0  0  0  0  0
   -0.6997    3.4498    1.1574 C   0  0  0  0  0  0  0  0  0  0  0  0
   -0.8161    2.7590   -1.2313 C   0  0  0  0  0  0  0  0  0  0  0  0
   -1.4725   -1.1183    0.3533 C   0  0  0  0  0  0  0  0  0  0  0  0
   -3.9353   -0.7025   -0.8788 C   0  0  0  0  0  0  0  0  0  0  0  0
   -2.2356   -2.2087   -0.0616 C   0  0  0  0  0  0  0  0  0  0  0  0
   -3.4653   -2.0009   -0.6813 C   0  0  0  0  0  0  0  0  0  0  0  0
   -0.1817   -1.3508    0.9951 C   0  0  0  0  0  0  0  0  0  0  0  0
    1.0497   -0.7930    0.3449 C   0  0  0  0  0  0  0  0  0  0  0  0
   -1.0158   -4.0614   -0.9192 C   0  0  0  0  0  0  0  0  0  0  0  0
    2.2527   -0.9586    0.9144 C   0  0  0  0  0  0  0  0  0  0  0  0
    3.5163   -0.4375    0.3638 C   0  0  0  0  0  0  0  0  0  0  0  0
    3.4961    0.6062   -0.5614 C   0  0  0  0  0  0  0  0  0  0  0  0
    4.7326   -0.9880    0.7677 C   0  0  0  0  0  0  0  0  0  0  0  0
    4.6920    1.0994   -1.0826 C   0  0  0  0  0  0  0  0  0  0  0  0
    5.9287   -0.4948    0.2465 C   0  0  0  0  0  0  0  0  0  0  0  0
    5.9084    0.5489   -0.6787 C   0  0  0  0  0  0  0  0  0  0  0  0
   -3.1538    3.8176   -0.1797 H   0  0  0  0  0  0  0  0  0  0  0  0
   -3.5933    2.0358   -1.7400 H   0  0  0  0  0  0  0  0  0  0  0  0
   -4.7745    1.8277   -0.4314 H   0  0  0  0  0  0  0  0  0  0  0  0
   -1.0221    3.2551    2.1864 H   0  0  0  0  0  0  0  0  0  0  0  0
   -0.8756    4.5062    0.9304 H   0  0  0  0  0  0  0  0  0  0  0  0
    0.3814    3.2665    1.1405 H   0  0  0  0  0  0  0  0  0  0  0  0
   -0.9942    3.7810   -1.5817 H   0  0  0  0  0  0  0  0  0  0  0  0
   -1.2171    2.0648   -1.9767 H   0  0  0  0  0  0  0  0  0  0  0  0
    0.2660    2.5838   -1.2127 H   0  0  0  0  0  0  0  0  0  0  0  0
   -4.4064    2.9703    1.4703 H   0  0  0  0  0  0  0  0  0  0  0  0
   -4.0540   -2.8551   -1.0070 H   0  0  0  0  0  0  0  0  0  0  0  0
   -5.5138   -1.4028   -1.7141 H   0  0  0  0  0  0  0  0  0  0  0  0
    0.9086   -0.2845   -0.6019 H   0  0  0  0  0  0  0  0  0  0  0  0
   -1.6081   -4.1461   -1.8358 H   0  0  0  0  0  0  0  0  0  0  0  0
   -0.1162   -3.4678   -1.1086 H   0  0  0  0  0  0  0  0  0  0  0  0
   -0.7121   -5.0641   -0.6061 H   0  0  0  0  0  0  0  0  0  0  0  0
    2.3463   -1.5055    1.8495 H   0  0  0  0  0  0  0  0  0  0  0  0
    2.5748    1.0791   -0.8888 H   0  0  0  0  0  0  0  0  0  0  0  0
    4.7672   -1.8028    1.4869 H   0  0  0  0  0  0  0  0  0  0  0  0
    4.6707    1.9157   -1.7996 H   0  0  0  0  0  0  0  0  0  0  0  0
    6.8696   -0.9324    0.5690 H   0  0  0  0  0  0  0  0  0  0  0  0
    7.8167    0.5342   -0.7989 H   0  0  0  0  0  0  0  0  0  0  0  0
  1  7  1  0  0  0  0
  1 11  1  0  0  0  0
  2  8  1  0  0  0  0
  2 37  1  0  0  0  0
  3 15  1  0  0  0  0
  3 39  1  0  0  0  0
  4 16  1  0  0  0  0
  4 20  1  0  0  0  0
  5 18  2  0  0  0  0
  6 27  1  0  0  0  0
  6 49  1  0  0  0  0
  7  8  1  0  0  0  0
  7 12  1  0  0  0  0
  7 13  1  0  0  0  0
  8  9  1  0  0  0  0
  8 28  1  0  0  0  0
  9 10  1  0  0  0  0
  9 29  1  0  0  0  0
  9 30  1  0  0  0  0
 10 11  2  0  0  0  0
 10 15  1  0  0  0  0
 11 14  1  0  0  0  0
 12 31  1  0  0  0  0
 12 32  1  0  0  0  0
 12 33  1  0  0  0  0
 13 34  1  0  0  0  0
 13 35  1  0  0  0  0
 13 36  1  0  0  0  0
 14 16  2  0  0  0  0
 14 18  1  0  0  0  0
 15 17  2  0  0  0  0
 16 17  1  0  0  0  0
 17 38  1  0  0  0  0
 18 19  1  0  0  0  0
 19 21  2  0  0  0  0
 19 40  1  0  0  0  0
 20 41  1  0  0  0  0
 20 42  1  0  0  0  0
 20 43  1  0  0  0  0
 21 22  1  0  0  0  0
 21 44  1  0  0  0  0
 22 23  2  0  0  0  0
 22 24  1  0  0  0  0
 23 25  1  0  0  0  0
 23 45  1  0  0  0  0
 24 26  2  0  0  0  0
 24 46  1  0  0  0  0
 25 27  2  0  0  0  0
 25 47  1  0  0  0  0
 26 27  1  0  0  0  0
 26 48  1  0  0  0  0
M  END
> <PUBCHEM_COMPOUND_CID>
23251204

> <PUBCHEM_CONFORMER_RMSD>
0.8

> <PUBCHEM_CONFORMER_DIVERSEORDER>
1
22
17
28
12
26
31
9
23
2
27
20
18
29
10
30
3
8
4
19
25
15
11
24
35
21
33
13
34
32
7
6
14
5
16

> <PUBCHEM_MMFF94_PARTIAL_CHARGES>
35
1 -0.36
10 -0.14
11 0.08
14 0.09
15 0.08
16 0.08
17 -0.15
18 0.47
19 -0.14
2 -0.68
20 0.28
21 -0.18
22 0.03
23 -0.15
24 -0.15
25 -0.15
26 -0.15
27 0.08
3 -0.53
37 0.4
38 0.15
39 0.45
4 -0.36
40 0.15
44 0.15
45 0.15
46 0.15
47 0.15
48 0.15
49 0.45
5 -0.57
6 -0.53
7 0.28
8 0.28
9 0.14

> <PUBCHEM_EFFECTIVE_ROTOR_COUNT>
4.8

> <PUBCHEM_PHARMACOPHORE_FEATURES>
11
1 1 acceptor
1 2 acceptor
1 2 donor
1 3 donor
1 4 acceptor
1 5 acceptor
1 6 donor
3 7 12 13 hydrophobe
6 1 7 8 9 10 11 rings
6 10 11 14 15 16 17 rings
6 22 23 24 25 26 27 rings

> <PUBCHEM_HEAVY_ATOM_COUNT>
27

> <PUBCHEM_ATOM_DEF_STEREO_COUNT>
0

> <PUBCHEM_ATOM_UDEF_STEREO_COUNT>
1

> <PUBCHEM_BOND_DEF_STEREO_COUNT>
1

> <PUBCHEM_BOND_UDEF_STEREO_COUNT>
0

> <PUBCHEM_ISOTOPIC_ATOM_COUNT>
0

> <PUBCHEM_COMPONENT_COUNT>
1

> <PUBCHEM_CACTVS_TAUTO_COUNT>
10

> <PUBCHEM_CONFORMER_ID>
0162C90400000001

> <PUBCHEM_MMFF94_ENERGY>
100.4396

> <PUBCHEM_FEATURE_SELFOVERLAP>
55.852

> <PUBCHEM_SHAPE_FINGERPRINT>
10670039 82 18408888421785252652
10871710 139 18335979771129543117
10906281 52 18265045844168929479
10937287 8 17622734119727088864
11049842 53 17982720888561415834
11578080 2 16270549360227322941
12107183 9 17902504897065465386
12788726 201 18413100650145681179
13583140 156 14996286928762312544
13911987 19 18336249190365221519
13994607 96 17895209799805835377
14251757 5 18339078297490488758
14713325 29 18409738369495487387
14790565 3 18053949450742466145
14840074 17 17895766096924156149
14910302 57 17988647376604534334
14931854 50 18335413560799903596
14955137 171 18267309918693880483
15021287 119 17461985576187156274
15064981 113 18270391686598560750
15064981 194 18042985330831204847
15163728 17 18199197195543924510
15183329 4 18186803548775321366
15297060 5 18200878361697049233
15575132 122 18041838394370193069
16994733 274 15502917655363724527
17492 54 18188474827449234109
17818456 19 18194386811378180426
19958102 18 18339640032511634166
20101258 96 17902803186079958715
20511986 3 17967798462856560260
20642791 239 17968365857974512733
20642791 35 18338506568792557385
20775438 99 16616688024591281887
21304303 64 17458340802531007333
23366157 5 17759518872739728971
23557571 272 18202288004724079156
23559900 14 18267577095302436832
255183 451 17694497453029583047
4258327 124 15937273229525648270
469060 322 16950862370055159097
474 4 17821726092306324450
484989 97 18118392081382490175
508706 21 18271823297755900182
531348 171 18411990144214478318
5364581 5 7925046094835060806
6034566 193 18122626042477908961
6700243 42 17626142915453503918
70251023 43 17473818902250841867
9981440 41 18337110072845419867

> <PUBCHEM_SHAPE_MULTIPOLES>
520.43
11.94
4.14
1.31
22.12
0.41
-0.16
-2.21
4.3
-4.78
-0.17
-0.07
-0.12
-1.73

> <PUBCHEM_SHAPE_SELFOVERLAP>
1128.614

> <PUBCHEM_SHAPE_VOLUME>
284.2

> <PUBCHEM_COORDINATE_TYPE>
2
5
10

$$$$
