24721373
  -OEChem-03112307353D

 95100  0     1  0  0  0  0  0999 V2000
    4.7956    0.0555    0.0003 O   0  0  0  0  0  0  0  0  0  0  0  0
   -3.9825   -1.1779   -0.2189 O   0  0  0  0  0  0  0  0  0  0  0  0
   -1.8645   -0.3757   -0.6743 O   0  0  0  0  0  0  0  0  0  0  0  0
    3.5380    1.6983   -1.0785 O   0  0  0  0  0  0  0  0  0  0  0  0
    5.2424    1.8405    2.1502 O   0  0  0  0  0  0  0  0  0  0  0  0
   -3.9455    1.0496    0.4746 O   0  0  0  0  0  0  0  0  0  0  0  0
    5.1334    4.6545    1.2842 O   0  0  0  0  0  0  0  0  0  0  0  0
    2.7127    5.1598   -0.2127 O   0  0  0  0  0  0  0  0  0  0  0  0
   -6.5896   -0.7910   -1.2489 O   0  0  0  0  0  0  0  0  0  0  0  0
    1.4341    2.0717   -2.8078 O   0  0  0  0  0  0  0  0  0  0  0  0
   -8.0313    1.3443    0.1804 O   0  0  0  0  0  0  0  0  0  0  0  0
   -6.4222    3.7424    0.3071 O   0  0  0  0  0  0  0  0  0  0  0  0
   -2.2719    3.1852    0.9154 O   0  0  0  0  0  0  0  0  0  0  0  0
    2.2732   -2.4325   -0.8892 C   0  0  2  0  0  0  0  0  0  0  0  0
    1.7563   -2.9652    0.4958 C   0  0  2  0  0  0  0  0  0  0  0  0
    0.2522   -2.6076    0.8680 C   0  0  1  0  0  0  0  0  0  0  0  0
   -0.6645   -2.8998   -0.3698 C   0  0  2  0  0  0  0  0  0  0  0  0
    2.7484   -0.9753   -0.7968 C   0  0  0  0  0  0  0  0  0  0  0  0
    1.2456   -2.6563   -2.0025 C   0  0  0  0  0  0  0  0  0  0  0  0
    4.0021   -1.1137    0.0641 C   0  0  2  0  0  0  0  0  0  0  0  0
    2.7724   -2.7067    1.6454 C   0  0  0  0  0  0  0  0  0  0  0  0
    3.6157   -3.1318   -1.2765 C   0  0  0  0  0  0  0  0  0  0  0  0
   -0.1570   -2.1894   -1.6395 C   0  0  0  0  0  0  0  0  0  0  0  0
   -2.1990   -2.7046   -0.1095 C   0  0  2  0  0  0  0  0  0  0  0  0
   -0.1957   -3.5333    2.0535 C   0  0  0  0  0  0  0  0  0  0  0  0
    3.6030   -1.4237    1.5105 C   0  0  0  0  0  0  0  0  0  0  0  0
    4.6694   -2.3023   -0.5846 C   0  0  0  0  0  0  0  0  0  0  0  0
    0.1076   -1.1445    1.3498 C   0  0  0  0  0  0  0  0  0  0  0  0
   -2.5928   -3.0860    1.3376 C   0  0  0  0  0  0  0  0  0  0  0  0
   -1.6216   -4.0798    1.9554 C   0  0  0  0  0  0  0  0  0  0  0  0
   -3.0082   -3.5841   -1.0886 C   0  0  0  0  0  0  0  0  0  0  0  0
   -2.6316   -1.2798   -0.3722 C   0  0  0  0  0  0  0  0  0  0  0  0
    5.9785   -2.5773   -0.5988 C   0  0  0  0  0  0  0  0  0  0  0  0
    4.0150    1.2363    0.1831 C   0  0  2  0  0  0  0  0  0  0  0  0
    4.9050    2.2920    0.8388 C   0  0  1  0  0  0  0  0  0  0  0  0
    4.1904    3.6402    0.9345 C   0  0  2  0  0  0  0  0  0  0  0  0
   -4.5281    0.1225   -0.4385 C   0  0  2  0  0  0  0  0  0  0  0  0
    2.7258    2.8679   -0.9625 C   0  0  1  0  0  0  0  0  0  0  0  0
    3.5547    4.0256   -0.4013 C   0  0  1  0  0  0  0  0  0  0  0  0
   -6.0399    0.0404   -0.2272 C   0  0  1  0  0  0  0  0  0  0  0  0
    2.1774    3.1864   -2.3498 C   0  0  0  0  0  0  0  0  0  0  0  0
   -6.6869    1.4239   -0.2959 C   0  0  2  0  0  0  0  0  0  0  0  0
   -4.4325    2.3800    0.2902 C   0  0  1  0  0  0  0  0  0  0  0  0
   -5.9352    2.4301    0.5756 C   0  0  1  0  0  0  0  0  0  0  0  0
   -3.6484    3.2911    1.2295 C   0  0  0  0  0  0  0  0  0  0  0  0
    1.7398   -4.0613    0.3769 H   0  0  0  0  0  0  0  0  0  0  0  0
   -0.5343   -3.9755   -0.5726 H   0  0  0  0  0  0  0  0  0  0  0  0
    1.9954   -0.3055   -0.3906 H   0  0  0  0  0  0  0  0  0  0  0  0
    2.9937   -0.5949   -1.7991 H   0  0  0  0  0  0  0  0  0  0  0  0
    1.2034   -3.7267   -2.2456 H   0  0  0  0  0  0  0  0  0  0  0  0
    1.5631   -2.1511   -2.9238 H   0  0  0  0  0  0  0  0  0  0  0  0
    2.2943   -2.7305    2.6302 H   0  0  0  0  0  0  0  0  0  0  0  0
    3.4741   -3.5527    1.6592 H   0  0  0  0  0  0  0  0  0  0  0  0
    3.6408   -4.1792   -0.9583 H   0  0  0  0  0  0  0  0  0  0  0  0
    3.7800   -3.0892   -2.3603 H   0  0  0  0  0  0  0  0  0  0  0  0
   -0.0801   -1.1068   -1.5432 H   0  0  0  0  0  0  0  0  0  0  0  0
   -0.8175   -2.3948   -2.4886 H   0  0  0  0  0  0  0  0  0  0  0  0
    0.4698   -4.4010    2.1458 H   0  0  0  0  0  0  0  0  0  0  0  0
   -0.0945   -2.9936    3.0044 H   0  0  0  0  0  0  0  0  0  0  0  0
    3.0368   -0.6022    1.9582 H   0  0  0  0  0  0  0  0  0  0  0  0
    4.5020   -1.5084    2.1359 H   0  0  0  0  0  0  0  0  0  0  0  0
    0.2730   -0.4094    0.5654 H   0  0  0  0  0  0  0  0  0  0  0  0
    0.8059   -0.9194    2.1608 H   0  0  0  0  0  0  0  0  0  0  0  0
   -0.8827   -0.9414    1.7650 H   0  0  0  0  0  0  0  0  0  0  0  0
   -2.6458   -2.1992    1.9814 H   0  0  0  0  0  0  0  0  0  0  0  0
   -3.6025   -3.5157    1.3654 H   0  0  0  0  0  0  0  0  0  0  0  0
   -1.9674   -4.3649    2.9560 H   0  0  0  0  0  0  0  0  0  0  0  0
   -1.6182   -5.0020    1.3608 H   0  0  0  0  0  0  0  0  0  0  0  0
   -2.8740   -3.2640   -2.1276 H   0  0  0  0  0  0  0  0  0  0  0  0
   -4.0856   -3.5541   -0.8873 H   0  0  0  0  0  0  0  0  0  0  0  0
   -2.7018   -4.6340   -1.0193 H   0  0  0  0  0  0  0  0  0  0  0  0
    6.6935   -1.9366   -0.0948 H   0  0  0  0  0  0  0  0  0  0  0  0
    6.3583   -3.4537   -1.1127 H   0  0  0  0  0  0  0  0  0  0  0  0
    3.1613    1.0669    0.8480 H   0  0  0  0  0  0  0  0  0  0  0  0
    5.8471    2.3951    0.2876 H   0  0  0  0  0  0  0  0  0  0  0  0
    3.4416    3.6308    1.7353 H   0  0  0  0  0  0  0  0  0  0  0  0
   -4.2988    0.4164   -1.4721 H   0  0  0  0  0  0  0  0  0  0  0  0
    1.8742    2.6378   -0.3074 H   0  0  0  0  0  0  0  0  0  0  0  0
    4.3382    4.3146   -1.1125 H   0  0  0  0  0  0  0  0  0  0  0  0
   -6.2673   -0.4432    0.7303 H   0  0  0  0  0  0  0  0  0  0  0  0
    4.4181    1.7379    2.6559 H   0  0  0  0  0  0  0  0  0  0  0  0
    1.5218    4.0622   -2.3313 H   0  0  0  0  0  0  0  0  0  0  0  0
    2.9920    3.3586   -3.0611 H   0  0  0  0  0  0  0  0  0  0  0  0
   -6.7507    1.7755   -1.3323 H   0  0  0  0  0  0  0  0  0  0  0  0
    5.8231    4.6756    0.5989 H   0  0  0  0  0  0  0  0  0  0  0  0
   -4.2162    2.6897   -0.7415 H   0  0  0  0  0  0  0  0  0  0  0  0
   -6.1305    2.2190    1.6342 H   0  0  0  0  0  0  0  0  0  0  0  0
    2.0054    4.9093    0.4060 H   0  0  0  0  0  0  0  0  0  0  0  0
   -6.3967   -0.3797   -2.1087 H   0  0  0  0  0  0  0  0  0  0  0  0
   -3.9537    4.3363    1.1231 H   0  0  0  0  0  0  0  0  0  0  0  0
   -3.7772    2.9803    2.2717 H   0  0  0  0  0  0  0  0  0  0  0  0
    1.0986    2.2942   -3.6929 H   0  0  0  0  0  0  0  0  0  0  0  0
   -8.0090    1.0170    1.0958 H   0  0  0  0  0  0  0  0  0  0  0  0
   -6.2413    3.9447   -0.6267 H   0  0  0  0  0  0  0  0  0  0  0  0
   -1.7918    3.7686    1.5275 H   0  0  0  0  0  0  0  0  0  0  0  0
  1 20  1  0  0  0  0
  1 34  1  0  0  0  0
  2 32  1  0  0  0  0
  2 37  1  0  0  0  0
  3 32  2  0  0  0  0
  4 34  1  0  0  0  0
  4 38  1  0  0  0  0
  5 35  1  0  0  0  0
  5 81  1  0  0  0  0
  6 37  1  0  0  0  0
  6 43  1  0  0  0  0
  7 36  1  0  0  0  0
  7 85  1  0  0  0  0
  8 39  1  0  0  0  0
  8 88  1  0  0  0  0
  9 40  1  0  0  0  0
  9 89  1  0  0  0  0
 10 41  1  0  0  0  0
 10 92  1  0  0  0  0
 11 42  1  0  0  0  0
 11 93  1  0  0  0  0
 12 44  1  0  0  0  0
 12 94  1  0  0  0  0
 13 45  1  0  0  0  0
 13 95  1  0  0  0  0
 14 15  1  0  0  0  0
 14 18  1  0  0  0  0
 14 19  1  0  0  0  0
 14 22  1  0  0  0  0
 15 16  1  0  0  0  0
 15 21  1  0  0  0  0
 15 46  1  0  0  0  0
 16 17  1  0  0  0  0
 16 25  1  0  0  0  0
 16 28  1  0  0  0  0
 17 23  1  0  0  0  0
 17 24  1  0  0  0  0
 17 47  1  0  0  0  0
 18 20  1  0  0  0  0
 18 48  1  0  0  0  0
 18 49  1  0  0  0  0
 19 23  1  0  0  0  0
 19 50  1  0  0  0  0
 19 51  1  0  0  0  0
 20 26  1  0  0  0  0
 20 27  1  0  0  0  0
 21 26  1  0  0  0  0
 21 52  1  0  0  0  0
 21 53  1  0  0  0  0
 22 27  1  0  0  0  0
 22 54  1  0  0  0  0
 22 55  1  0  0  0  0
 23 56  1  0  0  0  0
 23 57  1  0  0  0  0
 24 29  1  0  0  0  0
 24 31  1  0  0  0  0
 24 32  1  0  0  0  0
 25 30  1  0  0  0  0
 25 58  1  0  0  0  0
 25 59  1  0  0  0  0
 26 60  1  0  0  0  0
 26 61  1  0  0  0  0
 27 33  2  0  0  0  0
 28 62  1  0  0  0  0
 28 63  1  0  0  0  0
 28 64  1  0  0  0  0
 29 30  1  0  0  0  0
 29 65  1  0  0  0  0
 29 66  1  0  0  0  0
 30 67  1  0  0  0  0
 30 68  1  0  0  0  0
 31 69  1  0  0  0  0
 31 70  1  0  0  0  0
 31 71  1  0  0  0  0
 33 72  1  0  0  0  0
 33 73  1  0  0  0  0
 34 35  1  0  0  0  0
 34 74  1  0  0  0  0
 35 36  1  0  0  0  0
 35 75  1  0  0  0  0
 36 39  1  0  0  0  0
 36 76  1  0  0  0  0
 37 40  1  0  0  0  0
 37 77  1  0  0  0  0
 38 39  1  0  0  0  0
 38 41  1  0  0  0  0
 38 78  1  0  0  0  0
 39 79  1  0  0  0  0
 40 42  1  0  0  0  0
 40 80  1  0  0  0  0
 41 82  1  0  0  0  0
 41 83  1  0  0  0  0
 42 44  1  0  0  0  0
 42 84  1  0  0  0  0
 43 44  1  0  0  0  0
 43 45  1  0  0  0  0
 43 86  1  0  0  0  0
 44 87  1  0  0  0  0
 45 90  1  0  0  0  0
 45 91  1  0  0  0  0
M  END
> <PUBCHEM_COMPOUND_CID>
24721373

> <PUBCHEM_CONFORMER_RMSD>
1.2

> <PUBCHEM_CONFORMER_DIVERSEORDER>
1
76
87
20
32
79
25
72
24
68
42
61
14
64
73
34
54
18
60
36
12
74
19
88
80
62
7
78
56
38
6
67
29
45
70
53
44
52
82
50
37
40
69
39
31
47
57
5
75
27
8
83
86
48
35
10
23
15
33
30
66
46
11
2
59
22
63
81
49
3
17
65
71
41
13
84
26
85
21
9
51
77
58
55
43
4
28
16

> <PUBCHEM_MMFF94_PARTIAL_CHARGES>
41
1 -0.56
10 -0.68
11 -0.68
12 -0.68
13 -0.68
2 -0.43
20 0.42
22 0.14
24 0.06
27 -0.28
3 -0.57
32 0.66
33 -0.3
34 0.56
35 0.28
36 0.28
37 0.56
38 0.28
39 0.28
4 -0.56
40 0.28
41 0.28
42 0.28
43 0.28
44 0.28
45 0.28
5 -0.68
6 -0.56
7 -0.68
72 0.15
73 0.15
8 -0.68
81 0.4
85 0.4
88 0.4
89 0.4
9 -0.68
92 0.4
93 0.4
94 0.4
95 0.4

> <PUBCHEM_EFFECTIVE_ROTOR_COUNT>
11.4

> <PUBCHEM_PHARMACOPHORE_FEATURES>
25
1 1 acceptor
1 10 acceptor
1 10 donor
1 11 acceptor
1 11 donor
1 12 acceptor
1 12 donor
1 13 acceptor
1 13 donor
1 3 acceptor
1 4 acceptor
1 5 acceptor
1 5 donor
1 6 acceptor
1 7 acceptor
1 7 donor
1 8 acceptor
1 8 donor
1 9 acceptor
1 9 donor
6 14 15 16 17 19 23 rings
6 16 17 24 25 29 30 rings
6 4 34 35 36 38 39 rings
6 6 37 40 42 43 44 rings
8 14 15 18 20 21 22 26 27 rings

> <PUBCHEM_HEAVY_ATOM_COUNT>
45

> <PUBCHEM_ATOM_DEF_STEREO_COUNT>
16

> <PUBCHEM_ATOM_UDEF_STEREO_COUNT>
0

> <PUBCHEM_BOND_DEF_STEREO_COUNT>
0

> <PUBCHEM_BOND_UDEF_STEREO_COUNT>
0

> <PUBCHEM_ISOTOPIC_ATOM_COUNT>
0

> <PUBCHEM_COMPONENT_COUNT>
1

> <PUBCHEM_CACTVS_TAUTO_COUNT>
1

> <PUBCHEM_CONFORMER_ID>
017937DD00000001

> <PUBCHEM_MMFF94_ENERGY>
173.2642

> <PUBCHEM_FEATURE_SELFOVERLAP>
127.009

> <PUBCHEM_SHAPE_FINGERPRINT>
10439779 11 18336825269500896858
10673678 19 18131351929542170919
11456790 92 18042687208931111402
11513181 2 18201159970366606502
12422481 6 18118103996139133712
12786520 15 16660352714435717956
12925494 130 18335985362870689035
1361 2 18335424504503511969
14295345 954 18342459244876016914
14725015 67 18189611648983312628
15001296 14 18335416881115857409
15082195 135 17917152701901491438
15320291 9 18265049317796081021
15320467 1 18196937669126622345
15968369 153 18268438008912497247
16112460 7 18408605833668434628
19053607 189 18196644306128972744
20715895 44 18343581811345243714
20764821 26 16899891484866680832
21716022 299 14618549524641390855
22122407 14 18408891724161734683
23398203 216 18264510505948598049
2838139 119 18342174436794234007
3493558 16 18412268354049971686
4144715 1 18189345730774469290
508180 173 18265352620307799418
5109719 28 18337685105469772377
5223283 242 17627252064756198591
53794403 172 18409735062095933749
5776283 40 18339376201476391908
5951187 136 18341335504815900766
6036956 94 17542505385047502821
6086070 43 18334585603133918618
9961470 85 18409730690104290305

> <PUBCHEM_SHAPE_MULTIPOLES>
849.78
15.45
7.32
1.88
20.87
5.29
0.19
12.34
-0.71
-4.32
-1.2
-1.29
-0.39
0.28

> <PUBCHEM_SHAPE_SELFOVERLAP>
1817.854

> <PUBCHEM_SHAPE_VOLUME>
463.1

> <PUBCHEM_COORDINATE_TYPE>
2
5
10

$$$$
