250873
  -OEChem-03092322103D

 43 46  0     1  0  0  0  0  0999 V2000
   -4.2001   -1.8150    0.0513 O   0  0  0  0  0  0  0  0  0  0  0  0
    1.5487   -2.6783    0.9536 O   0  0  0  0  0  0  0  0  0  0  0  0
   -0.9631    0.7357   -0.7439 N   0  0  2  0  0  0  0  0  0  0  0  0
    1.4187   -0.3783    0.6313 N   0  0  0  0  0  0  0  0  0  0  0  0
   -0.4171    0.9641    1.7060 C   0  0  2  0  0  0  0  0  0  0  0  0
    1.0330    2.0452    0.0252 C   0  0  1  0  0  0  0  0  0  0  0  0
   -1.5231    0.7871    0.6244 C   0  0  2  0  0  0  0  0  0  0  0  0
    0.3884    2.2300    1.4017 C   0  0  0  0  0  0  0  0  0  0  0  0
    2.0279    0.8498    0.0770 C   0  0  2  0  0  0  0  0  0  0  0  0
   -0.0988    1.8951   -1.0148 C   0  0  0  0  0  0  0  0  0  0  0  0
    0.5678   -0.2112    1.8144 C   0  0  0  0  0  0  0  0  0  0  0  0
   -2.3905   -0.4547    0.8957 C   0  0  0  0  0  0  0  0  0  0  0  0
    2.7219    0.6239   -1.2680 C   0  0  0  0  0  0  0  0  0  0  0  0
   -2.0186    0.6409   -1.7634 C   0  0  0  0  0  0  0  0  0  0  0  0
   -3.4994   -0.5932   -0.1450 C   0  0  1  0  0  0  0  0  0  0  0  0
   -2.8995   -0.5868   -1.5458 C   0  0  0  0  0  0  0  0  0  0  0  0
    3.6319   -0.5847   -1.1647 C   0  0  0  0  0  0  0  0  0  0  0  0
    1.8864   -1.6630    0.3382 C   0  0  0  0  0  0  0  0  0  0  0  0
    2.7856   -1.8065   -0.8731 C   0  0  0  0  0  0  0  0  0  0  0  0
   -0.9072    1.0877    2.6804 H   0  0  0  0  0  0  0  0  0  0  0  0
    1.5987    2.9532   -0.2208 H   0  0  0  0  0  0  0  0  0  0  0  0
   -2.1814    1.6665    0.6961 H   0  0  0  0  0  0  0  0  0  0  0  0
   -0.2652    3.1108    1.4062 H   0  0  0  0  0  0  0  0  0  0  0  0
    1.1540    2.3991    2.1687 H   0  0  0  0  0  0  0  0  0  0  0  0
    2.8118    1.1137    0.8024 H   0  0  0  0  0  0  0  0  0  0  0  0
   -0.6975    2.8169   -1.0172 H   0  0  0  0  0  0  0  0  0  0  0  0
    0.3323    1.8142   -2.0184 H   0  0  0  0  0  0  0  0  0  0  0  0
    1.2498   -0.0394    2.6578 H   0  0  0  0  0  0  0  0  0  0  0  0
    0.0436   -1.1440    2.0417 H   0  0  0  0  0  0  0  0  0  0  0  0
   -1.7884   -1.3717    0.8865 H   0  0  0  0  0  0  0  0  0  0  0  0
   -2.8338   -0.3982    1.8977 H   0  0  0  0  0  0  0  0  0  0  0  0
    3.3039    1.5103   -1.5445 H   0  0  0  0  0  0  0  0  0  0  0  0
    1.9975    0.4452   -2.0699 H   0  0  0  0  0  0  0  0  0  0  0  0
   -1.5650    0.5615   -2.7588 H   0  0  0  0  0  0  0  0  0  0  0  0
   -2.6429    1.5441   -1.7617 H   0  0  0  0  0  0  0  0  0  0  0  0
   -4.2180    0.2287   -0.0447 H   0  0  0  0  0  0  0  0  0  0  0  0
   -3.7018   -0.6127   -2.2931 H   0  0  0  0  0  0  0  0  0  0  0  0
   -2.3152   -1.5029   -1.7059 H   0  0  0  0  0  0  0  0  0  0  0  0
    4.3739   -0.4352   -0.3712 H   0  0  0  0  0  0  0  0  0  0  0  0
    4.1793   -0.7260   -2.1030 H   0  0  0  0  0  0  0  0  0  0  0  0
    3.4430   -2.6685   -0.7121 H   0  0  0  0  0  0  0  0  0  0  0  0
    2.1419   -2.0366   -1.7307 H   0  0  0  0  0  0  0  0  0  0  0  0
   -4.5621   -1.8030    0.9538 H   0  0  0  0  0  0  0  0  0  0  0  0
  1 15  1  0  0  0  0
  1 43  1  0  0  0  0
  2 18  2  0  0  0  0
  3  7  1  0  0  0  0
  3 10  1  0  0  0  0
  3 14  1  0  0  0  0
  4  9  1  0  0  0  0
  4 11  1  0  0  0  0
  4 18  1  0  0  0  0
  5  7  1  0  0  0  0
  5  8  1  0  0  0  0
  5 11  1  0  0  0  0
  5 20  1  0  0  0  0
  6  8  1  0  0  0  0
  6  9  1  0  0  0  0
  6 10  1  0  0  0  0
  6 21  1  0  0  0  0
  7 12  1  0  0  0  0
  7 22  1  0  0  0  0
  8 23  1  0  0  0  0
  8 24  1  0  0  0  0
  9 13  1  0  0  0  0
  9 25  1  0  0  0  0
 10 26  1  0  0  0  0
 10 27  1  0  0  0  0
 11 28  1  0  0  0  0
 11 29  1  0  0  0  0
 12 15  1  0  0  0  0
 12 30  1  0  0  0  0
 12 31  1  0  0  0  0
 13 17  1  0  0  0  0
 13 32  1  0  0  0  0
 13 33  1  0  0  0  0
 14 16  1  0  0  0  0
 14 34  1  0  0  0  0
 14 35  1  0  0  0  0
 15 16  1  0  0  0  0
 15 36  1  0  0  0  0
 16 37  1  0  0  0  0
 16 38  1  0  0  0  0
 17 19  1  0  0  0  0
 17 39  1  0  0  0  0
 17 40  1  0  0  0  0
 18 19  1  0  0  0  0
 19 41  1  0  0  0  0
 19 42  1  0  0  0  0
M  END
> <PUBCHEM_COMPOUND_CID>
250873

> <PUBCHEM_CONFORMER_RMSD>
0.6

> <PUBCHEM_CONFORMER_DIVERSEORDER>
1
23
2
24
22
12
21
8
4
18
16
26
9
25
17
3
13
5
11
15
14
20
10
19
7
6

> <PUBCHEM_MMFF94_PARTIAL_CHARGES>
13
1 -0.68
10 0.27
11 0.3
14 0.27
15 0.28
18 0.57
19 0.06
2 -0.57
3 -0.81
4 -0.66
43 0.4
7 0.27
9 0.3

> <PUBCHEM_EFFECTIVE_ROTOR_COUNT>
2

> <PUBCHEM_PHARMACOPHORE_FEATURES>
8
1 1 acceptor
1 1 donor
1 2 acceptor
1 3 cation
6 3 5 6 7 8 10 rings
6 3 7 12 14 15 16 rings
6 4 5 6 8 9 11 rings
6 4 9 13 17 18 19 rings

> <PUBCHEM_HEAVY_ATOM_COUNT>
19

> <PUBCHEM_ATOM_DEF_STEREO_COUNT>
0

> <PUBCHEM_ATOM_UDEF_STEREO_COUNT>
5

> <PUBCHEM_BOND_DEF_STEREO_COUNT>
0

> <PUBCHEM_BOND_UDEF_STEREO_COUNT>
0

> <PUBCHEM_ISOTOPIC_ATOM_COUNT>
0

> <PUBCHEM_COMPONENT_COUNT>
1

> <PUBCHEM_CACTVS_TAUTO_COUNT>
1

> <PUBCHEM_CONFORMER_ID>
0003D3F900000001

> <PUBCHEM_MMFF94_ENERGY>
32.4854

> <PUBCHEM_FEATURE_SELFOVERLAP>
42.219

> <PUBCHEM_SHAPE_FINGERPRINT>
10064457 181 17978249462523055331
10863032 1 18270126694857018053
11086676 242 15913332394290101876
11578080 2 17988346079853047616
11961588 58 15721088425507791390
12403259 327 13254801230810712943
12423570 1 16310807222179228952
12491281 212 11170494464486079860
12553582 1 17917709097734501167
12716301 132 15696895643602383465
12778500 126 18126033605453550427
13299463 15 17895203172824433968
13464513 79 18263926725045243759
13571099 52 8935004771790424509
14251745 187 17898013679032074371
14787075 74 17702099373439107016
14817 1 8596607416553193696
15001771 113 18269558243176941840
15276787 5 12607404377438980350
15375462 189 17632017545354685637
15664445 248 17168699864471382853
15848702 105 12469218946135207921
15906896 17 17482838865804943241
16752209 62 17416967214837735841
16945 1 18261681453444639976
17093844 170 17328578935122329491
17349148 13 18042134163757537558
17357779 13 17610919154548833563
17492 54 17824843353683854662
18981168 100 12469213272156485489
200 152 18337119973208578310
20291156 8 18060425694066248199
20344682 6 17894639174925347028
20361792 2 17846489314340022413
20645477 70 18057867225598853695
21731516 1 17988352693959341999
22802520 49 17313672529276301313
23419403 2 15970236798205359988
23557571 272 17982430630307135858
238 59 17822864206894155804
2748010 2 17318473237577294392
3060560 45 18043241551505774535
3323516 105 18261678172342683879
5262128 65 17385447613287311245
5845 1 10993281811344616928
81228 2 17412165578307226120

> <PUBCHEM_SHAPE_MULTIPOLES>
369.31
5.45
2.33
1.77
2.25
0.13
0
3.61
-1.94
-0.8
0.44
0.18
-0.21
-0.09

> <PUBCHEM_SHAPE_SELFOVERLAP>
785.421

> <PUBCHEM_SHAPE_VOLUME>
198.3

> <PUBCHEM_COORDINATE_TYPE>
2
5
10

$$$$
