262500
  -OEChem-03112307482D

134142  0     1  0  0  0  0  0999 V2000
    7.7331   -1.9895    0.0000 O   0  0  0  0  0  0  0  0  0  0  0  0
    6.0010   -1.9895    0.0000 O   0  0  0  0  0  0  0  0  0  0  0  0
    7.7331   -3.9895    0.0000 O   0  0  0  0  0  0  0  0  0  0  0  0
    6.0010   -4.9895    0.0000 O   0  0  0  0  0  0  0  0  0  0  0  0
    4.2690   -3.9895    0.0000 O   0  0  0  0  0  0  0  0  0  0  0  0
    8.5991   -2.4895    0.0000 O   0  0  0  0  0  0  0  0  0  0  0  0
    4.2690   -0.9895    0.0000 O   0  0  0  0  0  0  0  0  0  0  0  0
    4.2690   -4.9895    0.0000 O   0  0  0  0  0  0  0  0  0  0  0  0
    9.4651   -4.9895    0.0000 O   0  0  0  0  0  0  0  0  0  0  0  0
    6.0010   -6.9895    0.0000 O   0  0  0  0  0  0  0  0  0  0  0  0
   11.1972   -3.9895    0.0000 O   0  0  0  0  0  0  0  0  0  0  0  0
   11.1972   -1.9895    0.0000 O   0  0  0  0  0  0  0  0  0  0  0  0
    4.2690   -7.9895    0.0000 O   0  0  0  0  0  0  0  0  0  0  0  0
    2.5369   -6.9895    0.0000 O   0  0  0  0  0  0  0  0  0  0  0  0
    2.5369   -3.9895    0.0000 O   0  0  0  0  0  0  0  0  0  0  0  0
    9.1562    6.2546    0.0000 N   0  0  3  0  0  0  0  0  0  0  0  0
    7.7624    4.2074    0.0000 C   0  0  3  0  0  0  0  0  0  0  0  0
    7.9678    5.1800    0.0000 C   0  0  3  0  0  0  0  0  0  0  0  0
    8.6303    3.7107    0.0000 C   0  0  3  0  0  0  0  0  0  0  0  0
    8.9561    5.2869    0.0000 C   0  0  3  0  0  0  0  0  0  0  0  0
    8.6342    2.7107    0.0000 C   0  0  3  0  0  0  0  0  0  0  0  0
    9.3647    4.3806    0.0000 C   0  0  0  0  0  0  0  0  0  0  0  0
    7.5655    6.0826    0.0000 C   0  0  3  0  0  0  0  0  0  0  0  0
    7.7701    2.2074    0.0000 C   0  0  3  0  0  0  0  0  0  0  0  0
    6.8983    3.7041    0.0000 C   0  0  0  0  0  0  0  0  0  0  0  0
    8.2985    6.7454    0.0000 C   0  0  3  0  0  0  0  0  0  0  0  0
    6.9021    2.7041    0.0000 C   0  0  0  0  0  0  0  0  0  0  0  0
    7.7580    1.1658    0.0000 C   0  0  3  0  0  0  0  0  0  0  0  0
    6.8944    4.7040    0.0000 C   0  0  0  0  0  0  0  0  0  0  0  0
    9.5461    2.2074    0.0000 C   0  0  0  0  0  0  0  0  0  0  0  0
    8.2786    7.7745    0.0000 C   0  0  0  0  0  0  0  0  0  0  0  0
   10.0535    6.7589    0.0000 C   0  0  0  0  0  0  0  0  0  0  0  0
    6.5871    6.2893    0.0000 C   0  0  0  0  0  0  0  0  0  0  0  0
    8.6581    0.6416    0.0000 C   0  0  0  0  0  0  0  0  0  0  0  0
   10.0575    7.7882    0.0000 C   0  0  3  0  0  0  0  0  0  0  0  0
    6.8081    0.6416    0.0000 C   0  0  0  0  0  0  0  0  0  0  0  0
    9.1641    8.2995    0.0000 C   0  0  0  0  0  0  0  0  0  0  0  0
    9.5581    1.1658    0.0000 C   0  0  0  0  0  0  0  0  0  0  0  0
    6.8939    1.6692    0.0000 C   0  0  0  0  0  0  0  0  0  0  0  0
    8.6706   -0.4434    0.0000 C   0  0  0  0  0  0  0  0  0  0  0  0
    6.7956   -0.4434    0.0000 C   0  0  0  0  0  0  0  0  0  0  0  0
    7.7331   -0.9895    0.0000 C   0  0  3  0  0  0  0  0  0  0  0  0
   10.9235    8.2882    0.0000 C   0  0  0  0  0  0  0  0  0  0  0  0
    6.8671   -2.4895    0.0000 C   0  0  3  0  0  0  0  0  0  0  0  0
    6.8671   -3.4895    0.0000 C   0  0  3  0  0  0  0  0  0  0  0  0
    6.0010   -3.9895    0.0000 C   0  0  3  0  0  0  0  0  0  0  0  0
    5.1350   -2.4895    0.0000 C   0  0  3  0  0  0  0  0  0  0  0  0
    5.1350   -3.4895    0.0000 C   0  0  3  0  0  0  0  0  0  0  0  0
    4.2690   -1.9895    0.0000 C   0  0  0  0  0  0  0  0  0  0  0  0
    8.5991   -3.4895    0.0000 C   0  0  3  0  0  0  0  0  0  0  0  0
    5.1350   -5.4895    0.0000 C   0  0  3  0  0  0  0  0  0  0  0  0
    9.4651   -3.9895    0.0000 C   0  0  3  0  0  0  0  0  0  0  0  0
    5.1350   -6.4895    0.0000 C   0  0  3  0  0  0  0  0  0  0  0  0
   10.3312   -3.4895    0.0000 C   0  0  3  0  0  0  0  0  0  0  0  0
    9.4651   -1.9895    0.0000 C   0  0  3  0  0  0  0  0  0  0  0  0
   10.3312   -2.4895    0.0000 C   0  0  3  0  0  0  0  0  0  0  0  0
    4.2690   -6.9895    0.0000 C   0  0  3  0  0  0  0  0  0  0  0  0
    3.4030   -5.4895    0.0000 C   0  0  3  0  0  0  0  0  0  0  0  0
    3.4030   -6.4895    0.0000 C   0  0  3  0  0  0  0  0  0  0  0  0
    9.4651   -0.9895    0.0000 C   0  0  0  0  0  0  0  0  0  0  0  0
    2.5369   -4.9895    0.0000 C   0  0  0  0  0  0  0  0  0  0  0  0
    7.1225    5.0905    0.0000 H   0  0  0  0  0  0  0  0  0  0  0  0
    9.4086    3.3690    0.0000 H   0  0  0  0  0  0  0  0  0  0  0  0
    9.8010    5.3801    0.0000 H   0  0  0  0  0  0  0  0  0  0  0  0
    9.3653    3.1442    0.0000 H   0  0  0  0  0  0  0  0  0  0  0  0
    9.7321    3.8812    0.0000 H   0  0  0  0  0  0  0  0  0  0  0  0
    9.9000    4.6935    0.0000 H   0  0  0  0  0  0  0  0  0  0  0  0
    7.3441    6.9033    0.0000 H   0  0  0  0  0  0  0  0  0  0  0  0
    8.5045    1.7796    0.0000 H   0  0  0  0  0  0  0  0  0  0  0  0
    6.6840    4.2858    0.0000 H   0  0  0  0  0  0  0  0  0  0  0  0
    6.2881    3.5940    0.0000 H   0  0  0  0  0  0  0  0  0  0  0  0
    7.5183    7.0828    0.0000 H   0  0  0  0  0  0  0  0  0  0  0  0
    6.2911    2.8094    0.0000 H   0  0  0  0  0  0  0  0  0  0  0  0
    6.6923    2.1206    0.0000 H   0  0  0  0  0  0  0  0  0  0  0  0
    7.2023    5.2422    0.0000 H   0  0  0  0  0  0  0  0  0  0  0  0
    6.3563    5.0120    0.0000 H   0  0  0  0  0  0  0  0  0  0  0  0
    6.5865    4.1659    0.0000 H   0  0  0  0  0  0  0  0  0  0  0  0
   10.1581    2.1084    0.0000 H   0  0  0  0  0  0  0  0  0  0  0  0
    9.7484    2.7935    0.0000 H   0  0  0  0  0  0  0  0  0  0  0  0
    8.0584    8.3541    0.0000 H   0  0  0  0  0  0  0  0  0  0  0  0
    7.6700    7.6567    0.0000 H   0  0  0  0  0  0  0  0  0  0  0  0
   10.2603    6.1744    0.0000 H   0  0  0  0  0  0  0  0  0  0  0  0
   10.6648    6.8627    0.0000 H   0  0  0  0  0  0  0  0  0  0  0  0
    6.7152    6.8959    0.0000 H   0  0  0  0  0  0  0  0  0  0  0  0
    5.9805    6.4174    0.0000 H   0  0  0  0  0  0  0  0  0  0  0  0
    6.4590    5.6827    0.0000 H   0  0  0  0  0  0  0  0  0  0  0  0
   10.7928    7.3618    0.0000 H   0  0  0  0  0  0  0  0  0  0  0  0
    6.6058    1.2276    0.0000 H   0  0  0  0  0  0  0  0  0  0  0  0
    6.1961    0.5425    0.0000 H   0  0  0  0  0  0  0  0  0  0  0  0
    9.5595    8.7770    0.0000 H   0  0  0  0  0  0  0  0  0  0  0  0
    8.7613    8.7708    0.0000 H   0  0  0  0  0  0  0  0  0  0  0  0
   10.0975    0.8600    0.0000 H   0  0  0  0  0  0  0  0  0  0  0  0
    7.2060    2.2049    0.0000 H   0  0  0  0  0  0  0  0  0  0  0  0
    6.3582    1.9812    0.0000 H   0  0  0  0  0  0  0  0  0  0  0  0
    6.5818    1.1334    0.0000 H   0  0  0  0  0  0  0  0  0  0  0  0
    8.8864   -1.0246    0.0000 H   0  0  0  0  0  0  0  0  0  0  0  0
    9.2802   -0.3302    0.0000 H   0  0  0  0  0  0  0  0  0  0  0  0
    6.1860   -0.3302    0.0000 H   0  0  0  0  0  0  0  0  0  0  0  0
    6.5798   -1.0246    0.0000 H   0  0  0  0  0  0  0  0  0  0  0  0
    8.4700   -1.4131    0.0000 H   0  0  0  0  0  0  0  0  0  0  0  0
   11.2335    7.7513    0.0000 H   0  0  0  0  0  0  0  0  0  0  0  0
   11.4604    8.5982    0.0000 H   0  0  0  0  0  0  0  0  0  0  0  0
   10.6135    8.8252    0.0000 H   0  0  0  0  0  0  0  0  0  0  0  0
    7.6032   -2.9145    0.0000 H   0  0  0  0  0  0  0  0  0  0  0  0
    6.8671   -4.3395    0.0000 H   0  0  0  0  0  0  0  0  0  0  0  0
    5.2649   -4.4145    0.0000 H   0  0  0  0  0  0  0  0  0  0  0  0
    5.1350   -1.6395    0.0000 H   0  0  0  0  0  0  0  0  0  0  0  0
    4.3989   -3.0645    0.0000 H   0  0  0  0  0  0  0  0  0  0  0  0
    3.6584   -1.8818    0.0000 H   0  0  0  0  0  0  0  0  0  0  0  0
    4.0569   -2.5721    0.0000 H   0  0  0  0  0  0  0  0  0  0  0  0
    8.5991   -4.3395    0.0000 H   0  0  0  0  0  0  0  0  0  0  0  0
    3.7320   -3.6795    0.0000 H   0  0  0  0  0  0  0  0  0  0  0  0
    5.1350   -4.6395    0.0000 H   0  0  0  0  0  0  0  0  0  0  0  0
   10.2013   -4.4145    0.0000 H   0  0  0  0  0  0  0  0  0  0  0  0
    3.7320   -0.6795    0.0000 H   0  0  0  0  0  0  0  0  0  0  0  0
    5.1350   -7.3395    0.0000 H   0  0  0  0  0  0  0  0  0  0  0  0
   11.0673   -3.0645    0.0000 H   0  0  0  0  0  0  0  0  0  0  0  0
    8.7290   -1.5645    0.0000 H   0  0  0  0  0  0  0  0  0  0  0  0
   10.3312   -1.6395    0.0000 H   0  0  0  0  0  0  0  0  0  0  0  0
    3.5329   -7.4145    0.0000 H   0  0  0  0  0  0  0  0  0  0  0  0
    3.4030   -4.6395    0.0000 H   0  0  0  0  0  0  0  0  0  0  0  0
    3.4030   -7.3395    0.0000 H   0  0  0  0  0  0  0  0  0  0  0  0
   10.0021   -5.2995    0.0000 H   0  0  0  0  0  0  0  0  0  0  0  0
   10.0851   -0.9895    0.0000 H   0  0  0  0  0  0  0  0  0  0  0  0
    9.4651   -0.3695    0.0000 H   0  0  0  0  0  0  0  0  0  0  0  0
    8.8451   -0.9895    0.0000 H   0  0  0  0  0  0  0  0  0  0  0  0
    6.0010   -7.6095    0.0000 H   0  0  0  0  0  0  0  0  0  0  0  0
   11.7341   -3.6795    0.0000 H   0  0  0  0  0  0  0  0  0  0  0  0
    1.9264   -4.8818    0.0000 H   0  0  0  0  0  0  0  0  0  0  0  0
    2.3249   -5.5721    0.0000 H   0  0  0  0  0  0  0  0  0  0  0  0
   11.7341   -2.2995    0.0000 H   0  0  0  0  0  0  0  0  0  0  0  0
    3.7320   -8.2995    0.0000 H   0  0  0  0  0  0  0  0  0  0  0  0
    2.0000   -6.6795    0.0000 H   0  0  0  0  0  0  0  0  0  0  0  0
    2.0000   -3.6795    0.0000 H   0  0  0  0  0  0  0  0  0  0  0  0
  1 42  1  0  0  0  0
  1 44  1  0  0  0  0
  2 44  1  0  0  0  0
  2 47  1  0  0  0  0
  3 45  1  0  0  0  0
  3 50  1  0  0  0  0
  4 46  1  0  0  0  0
  4 51  1  0  0  0  0
  5 48  1  0  0  0  0
  5112  1  0  0  0  0
  6 50  1  0  0  0  0
  6 55  1  0  0  0  0
  7 49  1  0  0  0  0
  7115  1  0  0  0  0
  8 51  1  0  0  0  0
  8 58  1  0  0  0  0
  9 52  1  0  0  0  0
  9123  1  0  0  0  0
 10 53  1  0  0  0  0
 10127  1  0  0  0  0
 11 54  1  0  0  0  0
 11128  1  0  0  0  0
 12 56  1  0  0  0  0
 12131  1  0  0  0  0
 13 57  1  0  0  0  0
 13132  1  0  0  0  0
 14 59  1  0  0  0  0
 14133  1  0  0  0  0
 15 61  1  0  0  0  0
 15134  1  0  0  0  0
 16 20  1  0  0  0  0
 16 26  1  0  0  0  0
 16 32  1  0  0  0  0
 17 18  1  0  0  0  0
 17 19  1  0  0  0  0
 17 25  1  0  0  0  0
 17 29  1  0  0  0  0
 18 20  1  0  0  0  0
 18 23  1  0  0  0  0
 18 62  1  0  0  0  0
 19 21  1  0  0  0  0
 19 22  1  0  0  0  0
 19 63  1  0  0  0  0
 20 22  1  0  0  0  0
 20 64  1  0  0  0  0
 21 24  1  0  0  0  0
 21 30  1  0  0  0  0
 21 65  1  0  0  0  0
 22 66  1  0  0  0  0
 22 67  1  0  0  0  0
 23 26  1  0  0  0  0
 23 33  1  0  0  0  0
 23 68  1  0  0  0  0
 24 27  1  0  0  0  0
 24 28  1  0  0  0  0
 24 69  1  0  0  0  0
 25 27  1  0  0  0  0
 25 70  1  0  0  0  0
 25 71  1  0  0  0  0
 26 31  1  0  0  0  0
 26 72  1  0  0  0  0
 27 73  1  0  0  0  0
 27 74  1  0  0  0  0
 28 34  1  0  0  0  0
 28 36  1  0  0  0  0
 28 39  1  0  0  0  0
 29 75  1  0  0  0  0
 29 76  1  0  0  0  0
 29 77  1  0  0  0  0
 30 38  1  0  0  0  0
 30 78  1  0  0  0  0
 30 79  1  0  0  0  0
 31 37  1  0  0  0  0
 31 80  1  0  0  0  0
 31 81  1  0  0  0  0
 32 35  1  0  0  0  0
 32 82  1  0  0  0  0
 32 83  1  0  0  0  0
 33 84  1  0  0  0  0
 33 85  1  0  0  0  0
 33 86  1  0  0  0  0
 34 38  2  0  0  0  0
 34 40  1  0  0  0  0
 35 37  1  0  0  0  0
 35 43  1  0  0  0  0
 35 87  1  0  0  0  0
 36 41  1  0  0  0  0
 36 88  1  0  0  0  0
 36 89  1  0  0  0  0
 37 90  1  0  0  0  0
 37 91  1  0  0  0  0
 38 92  1  0  0  0  0
 39 93  1  0  0  0  0
 39 94  1  0  0  0  0
 39 95  1  0  0  0  0
 40 42  1  0  0  0  0
 40 96  1  0  0  0  0
 40 97  1  0  0  0  0
 41 42  1  0  0  0  0
 41 98  1  0  0  0  0
 41 99  1  0  0  0  0
 42100  1  0  0  0  0
 43101  1  0  0  0  0
 43102  1  0  0  0  0
 43103  1  0  0  0  0
 44 45  1  0  0  0  0
 44104  1  0  0  0  0
 45 46  1  0  0  0  0
 45105  1  0  0  0  0
 46 48  1  0  0  0  0
 46106  1  0  0  0  0
 47 48  1  0  0  0  0
 47 49  1  0  0  0  0
 47107  1  0  0  0  0
 48108  1  0  0  0  0
 49109  1  0  0  0  0
 49110  1  0  0  0  0
 50 52  1  0  0  0  0
 50111  1  0  0  0  0
 51 53  1  0  0  0  0
 51113  1  0  0  0  0
 52 54  1  0  0  0  0
 52114  1  0  0  0  0
 53 57  1  0  0  0  0
 53116  1  0  0  0  0
 54 56  1  0  0  0  0
 54117  1  0  0  0  0
 55 56  1  0  0  0  0
 55 60  1  0  0  0  0
 55118  1  0  0  0  0
 56119  1  0  0  0  0
 57 59  1  0  0  0  0
 57120  1  0  0  0  0
 58 59  1  0  0  0  0
 58 61  1  0  0  0  0
 58121  1  0  0  0  0
 59122  1  0  0  0  0
 60124  1  0  0  0  0
 60125  1  0  0  0  0
 60126  1  0  0  0  0
 61129  1  0  0  0  0
 61130  1  0  0  0  0
M  END
> <PUBCHEM_COMPOUND_CID>
262500

> <PUBCHEM_COMPOUND_CANONICALIZED>
1

> <PUBCHEM_CACTVS_COMPLEXITY>
1590

> <PUBCHEM_CACTVS_HBOND_ACCEPTOR>
16

> <PUBCHEM_CACTVS_HBOND_DONOR>
9

> <PUBCHEM_CACTVS_ROTATABLE_BOND>
8

> <PUBCHEM_CACTVS_SUBSKEYS>
AAADcfB+PAAAAAAAAAAAAAAAAAAAAeIAAAA8aJEiAAAWAHiAAAAAHgAACAAADzzxgAcCCAMABgCAAiBCAAAAAAAgAAAACAAIAAgREAIAgQAmQAAFwACPAAPQ4PwPgAAAAAAAAADAAAQAACAAASAACQAAAA==

> <PUBCHEM_IUPAC_OPENEYE_NAME>
2-[5-hydroxy-6-(hydroxymethyl)-2-[(10,14,16,20-tetramethyl-22-azahexacyclo[12.10.0.02,11.05,10.015,23.017,22]tetracos-4-en-7-yl)oxy]-4-[3,4,5-trihydroxy-6-(hydroxymethyl)tetrahydropyran-2-yl]oxy-tetrahydropyran-3-yl]oxy-6-methyl-tetrahydropyran-3,4,5-triol

> <PUBCHEM_IUPAC_CAS_NAME>
2-[[5-hydroxy-6-(hydroxymethyl)-2-[(10,14,16,20-tetramethyl-22-azahexacyclo[12.10.0.02,11.05,10.015,23.017,22]tetracos-4-en-7-yl)oxy]-4-[[3,4,5-trihydroxy-6-(hydroxymethyl)-2-oxanyl]oxy]-3-oxanyl]oxy]-6-methyloxane-3,4,5-triol

> <PUBCHEM_IUPAC_NAME_MARKUP>
2-[5-hydroxy-6-(hydroxymethyl)-2-[(10,14,16,20-tetramethyl-22-azahexacyclo[12.10.0.0<SUP>2,11</SUP>.0<SUP>5,10</SUP>.0<SUP>15,23</SUP>.0<SUP>17,22</SUP>]tetracos-4-en-7-yl)oxy]-4-[3,4,5-trihydroxy-6-(hydroxymethyl)oxan-2-yl]oxyoxan-3-yl]oxy-6-methyloxane-3,4,5-triol

> <PUBCHEM_IUPAC_NAME>
2-[5-hydroxy-6-(hydroxymethyl)-2-[(10,14,16,20-tetramethyl-22-azahexacyclo[12.10.0.02,11.05,10.015,23.017,22]tetracos-4-en-7-yl)oxy]-4-[3,4,5-trihydroxy-6-(hydroxymethyl)oxan-2-yl]oxyoxan-3-yl]oxy-6-methyloxane-3,4,5-triol

> <PUBCHEM_IUPAC_SYSTEMATIC_NAME>
2-[6-(hydroxymethyl)-4-[6-(hydroxymethyl)-3,4,5-tris(oxidanyl)oxan-2-yl]oxy-5-oxidanyl-2-[(10,14,16,20-tetramethyl-22-azahexacyclo[12.10.0.02,11.05,10.015,23.017,22]tetracos-4-en-7-yl)oxy]oxan-3-yl]oxy-6-methyl-oxane-3,4,5-triol

> <PUBCHEM_IUPAC_TRADITIONAL_NAME>
2-[5-hydroxy-6-methylol-2-[(10,14,16,20-tetramethyl-22-azahexacyclo[12.10.0.02,11.05,10.015,23.017,22]tetracos-4-en-7-yl)oxy]-4-(3,4,5-trihydroxy-6-methylol-tetrahydropyran-2-yl)oxy-tetrahydropyran-3-yl]oxy-6-methyl-tetrahydropyran-3,4,5-triol

> <PUBCHEM_IUPAC_INCHI>
InChI=1S/C45H73NO15/c1-19-6-9-27-20(2)31-28(46(27)16-19)15-26-24-8-7-22-14-23(10-12-44(22,4)25(24)11-13-45(26,31)5)57-43-40(61-41-37(54)35(52)32(49)21(3)56-41)39(34(51)30(18-48)59-43)60-42-38(55)36(53)33(50)29(17-47)58-42/h7,19-21,23-43,47-55H,6,8-18H2,1-5H3

> <PUBCHEM_IUPAC_INCHIKEY>
ZGVSETXHNHBTRK-UHFFFAOYSA-N

> <PUBCHEM_XLOGP3_AA>
1.8

> <PUBCHEM_EXACT_MASS>
867.49802062

> <PUBCHEM_MOLECULAR_FORMULA>
C45H73NO15

> <PUBCHEM_MOLECULAR_WEIGHT>
868.1

> <PUBCHEM_OPENEYE_CAN_SMILES>
CC1CCC2C(C3C(N2C1)CC4C3(CCC5C4CC=C6C5(CCC(C6)OC7C(C(C(C(O7)CO)O)OC8C(C(C(C(O8)CO)O)O)O)OC9C(C(C(C(O9)C)O)O)O)C)C)C

> <PUBCHEM_OPENEYE_ISO_SMILES>
CC1CCC2C(C3C(N2C1)CC4C3(CCC5C4CC=C6C5(CCC(C6)OC7C(C(C(C(O7)CO)O)OC8C(C(C(C(O8)CO)O)O)O)OC9C(C(C(C(O9)C)O)O)O)C)C)C

> <PUBCHEM_CACTVS_TPSA>
241

> <PUBCHEM_MONOISOTOPIC_WEIGHT>
867.49802062

> <PUBCHEM_TOTAL_CHARGE>
0

> <PUBCHEM_HEAVY_ATOM_COUNT>
61

> <PUBCHEM_ATOM_DEF_STEREO_COUNT>
0

> <PUBCHEM_ATOM_UDEF_STEREO_COUNT>
26

> <PUBCHEM_BOND_DEF_STEREO_COUNT>
0

> <PUBCHEM_BOND_UDEF_STEREO_COUNT>
0

> <PUBCHEM_ISOTOPIC_ATOM_COUNT>
0

> <PUBCHEM_COMPONENT_COUNT>
1

> <PUBCHEM_CACTVS_TAUTO_COUNT>
1

> <PUBCHEM_COORDINATE_TYPE>
1
5
255

> <PUBCHEM_BONDANNOTATIONS>
17  29  3
18  62  3
19  63  3
20  64  3
21  65  3
23  68  3
24  69  3
26  72  3
28  39  3
35  87  3
42  100  3
44  104  3
45  105  3
46  106  3
47  107  3
48  108  3
50  111  3
51  113  3
52  114  3
53  116  3
54  117  3
55  118  3
56  119  3
57  120  3
58  121  3
59  122  3

$$$$
