46849639
  -OEChem-03112307423D

 33 35  0     1  0  0  0  0  0999 V2000
   -1.3853    0.3389   -0.6080 O   0  0  0  0  0  0  0  0  0  0  0  0
   -0.6818   -1.7594    0.3070 O   0  0  0  0  0  0  0  0  0  0  0  0
   -3.5775   -1.5674    0.5081 O   0  0  0  0  0  0  0  0  0  0  0  0
   -2.6831    2.5594   -1.6802 O   0  0  0  0  0  0  0  0  0  0  0  0
    4.3912    1.9680    0.7903 O   0  0  0  0  0  0  0  0  0  0  0  0
    1.5474   -0.1870    0.1659 N   0  0  0  0  0  0  0  0  0  0  0  0
   -0.8763   -0.3536    0.5467 C   0  0  2  0  0  0  0  0  0  0  0  0
   -1.9578   -0.1991    1.6158 C   0  0  0  0  0  0  0  0  0  0  0  0
   -3.2283   -0.2154    0.7932 C   0  0  1  0  0  0  0  0  0  0  0  0
   -2.8127    0.4923   -0.4894 C   0  0  1  0  0  0  0  0  0  0  0  0
    0.4483    0.2658    1.0005 C   0  0  0  0  0  0  0  0  0  0  0  0
    1.4615   -1.2842   -0.6512 C   0  0  0  0  0  0  0  0  0  0  0  0
    0.1909   -2.0391   -0.7957 C   0  0  0  0  0  0  0  0  0  0  0  0
   -3.1106    1.9850   -0.4575 C   0  0  0  0  0  0  0  0  0  0  0  0
    2.7998    0.3536    0.1128 C   0  0  0  0  0  0  0  0  0  0  0  0
    2.6968   -1.4453   -1.2456 C   0  0  0  0  0  0  0  0  0  0  0  0
    3.5403   -0.4117   -0.7628 C   0  0  0  0  0  0  0  0  0  0  0  0
    3.2371    1.4994    0.8501 C   0  0  0  0  0  0  0  0  0  0  0  0
   -1.8682    0.7718    2.1174 H   0  0  0  0  0  0  0  0  0  0  0  0
   -1.9245   -0.9986    2.3629 H   0  0  0  0  0  0  0  0  0  0  0  0
   -4.0765    0.2477    1.3056 H   0  0  0  0  0  0  0  0  0  0  0  0
   -3.2580    0.0386   -1.3820 H   0  0  0  0  0  0  0  0  0  0  0  0
    0.4030    1.3580    0.9420 H   0  0  0  0  0  0  0  0  0  0  0  0
    0.7034   -0.0498    2.0188 H   0  0  0  0  0  0  0  0  0  0  0  0
   -0.3145   -1.7818   -1.7327 H   0  0  0  0  0  0  0  0  0  0  0  0
    0.3820   -3.1167   -0.7991 H   0  0  0  0  0  0  0  0  0  0  0  0
   -2.5663    2.4830    0.3516 H   0  0  0  0  0  0  0  0  0  0  0  0
   -4.1831    2.1679   -0.3394 H   0  0  0  0  0  0  0  0  0  0  0  0
   -4.3650   -1.5495   -0.0622 H   0  0  0  0  0  0  0  0  0  0  0  0
    2.9603   -2.2189   -1.9535 H   0  0  0  0  0  0  0  0  0  0  0  0
    4.5760   -0.2504   -1.0298 H   0  0  0  0  0  0  0  0  0  0  0  0
   -2.8856    3.5095   -1.6369 H   0  0  0  0  0  0  0  0  0  0  0  0
    2.5064    1.9874    1.5152 H   0  0  0  0  0  0  0  0  0  0  0  0
  1  7  1  0  0  0  0
  1 10  1  0  0  0  0
  2  7  1  0  0  0  0
  2 13  1  0  0  0  0
  3  9  1  0  0  0  0
  3 29  1  0  0  0  0
  4 14  1  0  0  0  0
  4 32  1  0  0  0  0
  5 18  2  0  0  0  0
  6 11  1  0  0  0  0
  6 12  1  0  0  0  0
  6 15  1  0  0  0  0
  7  8  1  0  0  0  0
  7 11  1  0  0  0  0
  8  9  1  0  0  0  0
  8 19  1  0  0  0  0
  8 20  1  0  0  0  0
  9 10  1  0  0  0  0
  9 21  1  0  0  0  0
 10 14  1  0  0  0  0
 10 22  1  0  0  0  0
 11 23  1  0  0  0  0
 11 24  1  0  0  0  0
 12 13  1  0  0  0  0
 12 16  2  0  0  0  0
 13 25  1  0  0  0  0
 13 26  1  0  0  0  0
 14 27  1  0  0  0  0
 14 28  1  0  0  0  0
 15 17  2  0  0  0  0
 15 18  1  0  0  0  0
 16 17  1  0  0  0  0
 16 30  1  0  0  0  0
 17 31  1  0  0  0  0
 18 33  1  0  0  0  0
M  END
> <PUBCHEM_COMPOUND_CID>
46849639

> <PUBCHEM_CONFORMER_RMSD>
0.6

> <PUBCHEM_CONFORMER_DIVERSEORDER>
1
8
4
5
7
3
6
2

> <PUBCHEM_MMFF94_PARTIAL_CHARGES>
22
1 -0.56
10 0.28
11 0.26
12 -0.33
13 0.46
14 0.28
15 -0.24
16 -0.15
17 -0.15
18 0.59
2 -0.56
29 0.4
3 -0.68
30 0.15
31 0.15
32 0.4
33 0.06
4 -0.68
5 -0.57
6 0.05
7 0.56
9 0.28

> <PUBCHEM_EFFECTIVE_ROTOR_COUNT>
3.4

> <PUBCHEM_PHARMACOPHORE_FEATURES>
11
1 1 acceptor
1 2 acceptor
1 3 acceptor
1 3 donor
1 4 acceptor
1 4 donor
1 5 acceptor
1 6 cation
5 1 7 8 9 10 rings
5 6 12 15 16 17 rings
6 2 6 7 11 12 13 rings

> <PUBCHEM_HEAVY_ATOM_COUNT>
18

> <PUBCHEM_ATOM_DEF_STEREO_COUNT>
3

> <PUBCHEM_ATOM_UDEF_STEREO_COUNT>
0

> <PUBCHEM_BOND_DEF_STEREO_COUNT>
0

> <PUBCHEM_BOND_UDEF_STEREO_COUNT>
0

> <PUBCHEM_ISOTOPIC_ATOM_COUNT>
0

> <PUBCHEM_COMPONENT_COUNT>
1

> <PUBCHEM_CACTVS_TAUTO_COUNT>
1

> <PUBCHEM_CONFORMER_ID>
02CADE6700000001

> <PUBCHEM_MMFF94_ENERGY>
36.7635

> <PUBCHEM_FEATURE_SELFOVERLAP>
55.969

> <PUBCHEM_SHAPE_FINGERPRINT>
10498660 4 18115298961214050341
10608611 8 18411420591983108676
10646746 165 18260546684720357860
10871710 139 16823903149697473636
11132069 177 18337116764799501427
11715629 250 18410009931396729045
11759241 127 18339077223811754301
12403259 415 18412552002602088880
12403814 3 18339076120247842915
12730499 353 18266182726006597497
12932764 1 18262811678420518419
13134695 92 17912926085258041206
13294875 104 17318722470213343507
13464514 151 17905890266821960997
13571099 52 18188485774745975343
13583140 156 18261104180165592538
13764800 53 17750529377302706521
14250199 8 17774729649467158692
14289901 80 17749119901889865450
15219456 202 18413110554218692922
15279308 16 18334852814133101497
15342168 16 18129113375217651153
16945 1 17749403593053909091
17357990 137 15936987227278360766
18186145 218 18130515149600642858
18219364 16 18343866649228385632
19422 9 16773809064595629699
200 152 17060053679686959863
20645477 56 18262524684895992449
20645477 70 17775005635285923814
21486144 27 18202013152375838354
21524375 3 18128253583374269946
21639500 275 17775280569317521264
22802520 49 18195532488928691629
23402539 116 18114733962587309787
23419403 2 16466653658125751466
23493267 7 17749684986552633802
23557571 272 18115041752786185199
23559900 14 17968384442182178950
25 1 18196659484020338319
2748010 2 18412270505849692524
3082319 5 15841548561388610084
6049 1 18337968795678864604
621550 34 18340778104144588675
633830 44 17417827101175184720
77492 1 16200155352445167562
7808743 9 17532667736338051788
90316 7 16226040068071361157
9925002 15 17762339514974404799

> <PUBCHEM_SHAPE_MULTIPOLES>
336.1
7
2.2
1.31
1.57
0.45
-0.09
2.91
-0.17
0.16
-0.57
-0.56
0.33
2.02

> <PUBCHEM_SHAPE_SELFOVERLAP>
726.164

> <PUBCHEM_SHAPE_VOLUME>
184.8

> <PUBCHEM_COORDINATE_TYPE>
2
5
10

$$$$
