550598
  -OEChem-03102308593D

 49 49  0     1  0  0  0  0  0999 V2000
   -0.2619   -0.1260    1.7404 O   0  0  0  0  0  0  0  0  0  0  0  0
   -0.7788    1.8368   -2.5567 O   0  0  0  0  0  0  0  0  0  0  0  0
    0.1901   -0.7368   -2.9345 O   0  0  0  0  0  0  0  0  0  0  0  0
    2.3687   -1.2338   -0.7973 O   0  0  0  0  0  0  0  0  0  0  0  0
   -0.7431    1.3603   -0.1381 C   0  0  0  0  0  0  0  0  0  0  0  0
    0.0284   -1.0190   -0.5022 C   0  0  1  0  0  0  0  0  0  0  0  0
   -0.3144    0.0477    0.5291 C   0  0  0  0  0  0  0  0  0  0  0  0
   -2.2056    1.6541    0.1704 C   0  0  0  0  0  0  0  0  0  0  0  0
    0.1799    2.4920    0.2946 C   0  0  0  0  0  0  0  0  0  0  0  0
   -0.5709    1.0900   -1.6223 C   0  0  0  0  0  0  0  0  0  0  0  0
   -0.0727   -0.3101   -1.8288 C   0  0  0  0  0  0  0  0  0  0  0  0
    1.3462   -1.6757   -0.2730 C   0  0  0  0  0  0  0  0  0  0  0  0
    1.3512   -2.9243    0.6041 C   0  0  0  0  0  0  0  0  0  0  0  0
   -3.0227    0.4322   -0.1290 C   0  0  0  0  0  0  0  0  0  0  0  0
    1.5913    2.1374   -0.0701 C   0  0  0  0  0  0  0  0  0  0  0  0
   -3.7509   -0.3028    0.7330 C   0  0  0  0  0  0  0  0  0  0  0  0
    2.6556    2.0471    0.7501 C   0  0  0  0  0  0  0  0  0  0  0  0
    1.1291   -4.1637   -0.2544 C   0  0  0  0  0  0  0  0  0  0  0  0
    2.6547   -3.0349    1.3909 C   0  0  0  0  0  0  0  0  0  0  0  0
   -4.4805   -1.5322    0.2613 C   0  0  0  0  0  0  0  0  0  0  0  0
   -3.9279    0.0036    2.1931 C   0  0  0  0  0  0  0  0  0  0  0  0
    4.0176    1.7174    0.2000 C   0  0  0  0  0  0  0  0  0  0  0  0
    2.6165    2.2407    2.2394 C   0  0  0  0  0  0  0  0  0  0  0  0
   -0.7738   -1.7652   -0.4918 H   0  0  0  0  0  0  0  0  0  0  0  0
   -2.5747    2.4772   -0.4542 H   0  0  0  0  0  0  0  0  0  0  0  0
   -2.3099    1.9834    1.2069 H   0  0  0  0  0  0  0  0  0  0  0  0
    0.0555    2.6961    1.3607 H   0  0  0  0  0  0  0  0  0  0  0  0
   -0.0829    3.4181   -0.2323 H   0  0  0  0  0  0  0  0  0  0  0  0
    0.5322   -2.8338    1.3277 H   0  0  0  0  0  0  0  0  0  0  0  0
   -3.0230    0.1179   -1.1721 H   0  0  0  0  0  0  0  0  0  0  0  0
    1.7834    2.0061   -1.1342 H   0  0  0  0  0  0  0  0  0  0  0  0
    1.9254   -4.2792   -0.9981 H   0  0  0  0  0  0  0  0  0  0  0  0
    1.1030   -5.0678    0.3625 H   0  0  0  0  0  0  0  0  0  0  0  0
    0.1810   -4.0984   -0.7987 H   0  0  0  0  0  0  0  0  0  0  0  0
    2.8265   -2.1299    1.9839 H   0  0  0  0  0  0  0  0  0  0  0  0
    3.5160   -3.1620    0.7257 H   0  0  0  0  0  0  0  0  0  0  0  0
    2.6252   -3.8893    2.0750 H   0  0  0  0  0  0  0  0  0  0  0  0
   -4.1305   -2.4130    0.8097 H   0  0  0  0  0  0  0  0  0  0  0  0
   -4.3283   -1.7252   -0.8059 H   0  0  0  0  0  0  0  0  0  0  0  0
   -5.5569   -1.4225    0.4291 H   0  0  0  0  0  0  0  0  0  0  0  0
   -3.4088    0.9018    2.5297 H   0  0  0  0  0  0  0  0  0  0  0  0
   -4.9908    0.1404    2.4199 H   0  0  0  0  0  0  0  0  0  0  0  0
   -3.5544   -0.8308    2.7963 H   0  0  0  0  0  0  0  0  0  0  0  0
    4.7228    2.5236    0.4270 H   0  0  0  0  0  0  0  0  0  0  0  0
    4.0086    1.5801   -0.8864 H   0  0  0  0  0  0  0  0  0  0  0  0
    4.3922    0.7907    0.6473 H   0  0  0  0  0  0  0  0  0  0  0  0
    1.6174    2.4121    2.6423 H   0  0  0  0  0  0  0  0  0  0  0  0
    3.0129    1.3510    2.7410 H   0  0  0  0  0  0  0  0  0  0  0  0
    3.2373    3.0975    2.5215 H   0  0  0  0  0  0  0  0  0  0  0  0
  1  7  2  0  0  0  0
  2 10  2  0  0  0  0
  3 11  2  0  0  0  0
  4 12  2  0  0  0  0
  5  7  1  0  0  0  0
  5  8  1  0  0  0  0
  5  9  1  0  0  0  0
  5 10  1  0  0  0  0
  6  7  1  0  0  0  0
  6 11  1  0  0  0  0
  6 12  1  0  0  0  0
  6 24  1  0  0  0  0
  8 14  1  0  0  0  0
  8 25  1  0  0  0  0
  8 26  1  0  0  0  0
  9 15  1  0  0  0  0
  9 27  1  0  0  0  0
  9 28  1  0  0  0  0
 10 11  1  0  0  0  0
 12 13  1  0  0  0  0
 13 18  1  0  0  0  0
 13 19  1  0  0  0  0
 13 29  1  0  0  0  0
 14 16  2  0  0  0  0
 14 30  1  0  0  0  0
 15 17  2  0  0  0  0
 15 31  1  0  0  0  0
 16 20  1  0  0  0  0
 16 21  1  0  0  0  0
 17 22  1  0  0  0  0
 17 23  1  0  0  0  0
 18 32  1  0  0  0  0
 18 33  1  0  0  0  0
 18 34  1  0  0  0  0
 19 35  1  0  0  0  0
 19 36  1  0  0  0  0
 19 37  1  0  0  0  0
 20 38  1  0  0  0  0
 20 39  1  0  0  0  0
 20 40  1  0  0  0  0
 21 41  1  0  0  0  0
 21 42  1  0  0  0  0
 21 43  1  0  0  0  0
 22 44  1  0  0  0  0
 22 45  1  0  0  0  0
 22 46  1  0  0  0  0
 23 47  1  0  0  0  0
 23 48  1  0  0  0  0
 23 49  1  0  0  0  0
M  END
> <PUBCHEM_COMPOUND_CID>
550598

> <PUBCHEM_CONFORMER_RMSD>
0.8

> <PUBCHEM_CONFORMER_DIVERSEORDER>
1
89
102
112
85
122
144
165
82
173
80
167
59
150
40
128
174
119
106
15
169
45
13
86
141
182
44
159
76
181
145
164
136
151
29
133
63
39
134
131
123
154
146
168
183
148
152
69
61
2
16
163
52
142
153
137
149
143
157
56
55
155
8
68
87
147
73
135
7
166
132
54
140
9
94
20
43
104
42
100
51
156
33
79
113
118
129
41
125
179
35
88
18
58
57
95
170
93
171
48
138
139
74
21
111
162
108
23
177
6
46
101
176
62
75
71
178
38
67
103
105
96
161
110
114
11
50
126
36
109
175
34
172
127
77
25
91
53
120
130
65
99
37
3
92
107
98
158
180
97
78
115
70
124
90
24
49
84
83
47
117
14
32
66
60
28
30
4
160
10
26
19
116
31
5
17
72
121
12
64
81
22
27

> <PUBCHEM_MMFF94_PARTIAL_CHARGES>
23
1 -0.57
10 0.51
11 0.51
12 0.45
13 0.06
14 -0.29
15 -0.29
16 -0.28
17 -0.28
2 -0.57
20 0.14
21 0.14
22 0.14
23 0.14
3 -0.57
30 0.15
31 0.15
4 -0.57
5 0.12
6 0.18
7 0.45
8 0.14
9 0.14

> <PUBCHEM_EFFECTIVE_ROTOR_COUNT>
6.4

> <PUBCHEM_PHARMACOPHORE_FEATURES>
9
1 1 acceptor
1 2 acceptor
1 3 acceptor
1 4 acceptor
1 6 anion
3 13 18 19 hydrophobe
3 16 20 21 hydrophobe
3 17 22 23 hydrophobe
5 5 6 7 10 11 rings

> <PUBCHEM_HEAVY_ATOM_COUNT>
23

> <PUBCHEM_ATOM_DEF_STEREO_COUNT>
0

> <PUBCHEM_ATOM_UDEF_STEREO_COUNT>
1

> <PUBCHEM_BOND_DEF_STEREO_COUNT>
0

> <PUBCHEM_BOND_UDEF_STEREO_COUNT>
0

> <PUBCHEM_ISOTOPIC_ATOM_COUNT>
0

> <PUBCHEM_COMPONENT_COUNT>
1

> <PUBCHEM_CACTVS_TAUTO_COUNT>
7

> <PUBCHEM_CONFORMER_ID>
000866C600000001

> <PUBCHEM_MMFF94_ENERGY>
38.1034

> <PUBCHEM_FEATURE_SELFOVERLAP>
45.677

> <PUBCHEM_SHAPE_FINGERPRINT>
10948715 1 16701187532762010213
11578080 2 17969505896645123885
12592029 89 18341332291958499200
12633257 1 18054794975172682553
12788726 201 16682305224351343306
13149001 5 17539666033401529061
14178342 30 18122650480951697211
14787075 74 18265920028321138750
14863182 85 18190474946385053427
16945 1 18338516468761090461
19591789 44 18411417353931312402
20600515 1 17332254095413407452
20905425 154 18271535178100836876
21330990 113 18187924048942545134
21421861 104 18197804136213494409
21452121 71 18191038815123891903
23419403 2 17897142668191102822
23557571 272 17313373488263327341
23559900 14 18188485753176147901
3797600 57 17489593402147002571
394222 165 17846502560098129233
465052 167 17604707927337060729
5845 1 10340325110524951061

> <PUBCHEM_SHAPE_MULTIPOLES>
449.85
5.8
4
2.13
4.34
3.73
-0.75
-0.51
3.33
-3.84
0.71
0.21
-0.43
0.53

> <PUBCHEM_SHAPE_SELFOVERLAP>
919.075

> <PUBCHEM_SHAPE_VOLUME>
262.4

> <PUBCHEM_COORDINATE_TYPE>
2
5
10

$$$$
