56929107
  -OEChem-03112307013D

 37 38  0     1  0  0  0  0  0999 V2000
    2.0812   -2.4089    0.4623 O   0  0  0  0  0  0  0  0  0  0  0  0
    1.3760    2.8380    0.4588 O   0  0  0  0  0  0  0  0  0  0  0  0
   -5.7436   -1.1696   -0.8635 O   0  0  0  0  0  0  0  0  0  0  0  0
    2.6755    1.0045   -0.0392 N   0  0  0  0  0  0  0  0  0  0  0  0
    0.6909   -0.5878    0.6828 N   0  0  0  0  0  0  0  0  0  0  0  0
    2.7281   -0.3319   -0.6135 C   0  0  1  0  0  0  0  0  0  0  0  0
    4.1571   -0.8449   -0.6871 C   0  0  0  0  0  0  0  0  0  0  0  0
    0.2738    0.6989    0.1452 C   0  0  1  0  0  0  0  0  0  0  0  0
    1.8487   -1.2203    0.2560 C   0  0  0  0  0  0  0  0  0  0  0  0
   -0.9356    1.2417    0.8893 C   0  0  0  0  0  0  0  0  0  0  0  0
    1.4731    1.6309    0.2515 C   0  0  0  0  0  0  0  0  0  0  0  0
    5.0084    0.0454   -1.5938 C   0  0  0  0  0  0  0  0  0  0  0  0
    4.7770   -0.9292    0.7084 C   0  0  0  0  0  0  0  0  0  0  0  0
   -2.2162    0.6001    0.4225 C   0  0  0  0  0  0  0  0  0  0  0  0
   -2.9366    1.1649   -0.6300 C   0  0  0  0  0  0  0  0  0  0  0  0
   -2.6814   -0.5594    1.0428 C   0  0  0  0  0  0  0  0  0  0  0  0
   -4.1222    0.5705   -1.0620 C   0  0  0  0  0  0  0  0  0  0  0  0
   -3.8669   -1.1539    0.6111 C   0  0  0  0  0  0  0  0  0  0  0  0
   -4.5874   -0.5890   -0.4414 C   0  0  0  0  0  0  0  0  0  0  0  0
    2.2794   -0.2873   -1.6137 H   0  0  0  0  0  0  0  0  0  0  0  0
    4.1521   -1.8548   -1.1174 H   0  0  0  0  0  0  0  0  0  0  0  0
    0.0608    0.5642   -0.9232 H   0  0  0  0  0  0  0  0  0  0  0  0
    3.5054    1.5885   -0.0426 H   0  0  0  0  0  0  0  0  0  0  0  0
   -1.0331    2.3255    0.7435 H   0  0  0  0  0  0  0  0  0  0  0  0
   -0.8250    1.1078    1.9739 H   0  0  0  0  0  0  0  0  0  0  0  0
    0.0304   -1.1408    1.2193 H   0  0  0  0  0  0  0  0  0  0  0  0
    5.9911   -0.4122   -1.7547 H   0  0  0  0  0  0  0  0  0  0  0  0
    4.5388    0.1674   -2.5757 H   0  0  0  0  0  0  0  0  0  0  0  0
    5.1831    1.0391   -1.1704 H   0  0  0  0  0  0  0  0  0  0  0  0
    4.2414   -1.6114    1.3735 H   0  0  0  0  0  0  0  0  0  0  0  0
    5.8043   -1.3055    0.6366 H   0  0  0  0  0  0  0  0  0  0  0  0
    4.8297    0.0488    1.1984 H   0  0  0  0  0  0  0  0  0  0  0  0
   -2.5834    2.0666   -1.1232 H   0  0  0  0  0  0  0  0  0  0  0  0
   -2.1373   -1.0064    1.8702 H   0  0  0  0  0  0  0  0  0  0  0  0
   -4.6786    1.0146   -1.8828 H   0  0  0  0  0  0  0  0  0  0  0  0
   -4.2196   -2.0559    1.1040 H   0  0  0  0  0  0  0  0  0  0  0  0
   -5.9141   -1.9608   -0.3241 H   0  0  0  0  0  0  0  0  0  0  0  0
  1  9  2  0  0  0  0
  2 11  2  0  0  0  0
  3 19  1  0  0  0  0
  3 37  1  0  0  0  0
  4  6  1  0  0  0  0
  4 11  1  0  0  0  0
  4 23  1  0  0  0  0
  5  8  1  0  0  0  0
  5  9  1  0  0  0  0
  5 26  1  0  0  0  0
  6  7  1  0  0  0  0
  6  9  1  0  0  0  0
  6 20  1  0  0  0  0
  7 12  1  0  0  0  0
  7 13  1  0  0  0  0
  7 21  1  0  0  0  0
  8 10  1  0  0  0  0
  8 11  1  0  0  0  0
  8 22  1  0  0  0  0
 10 14  1  0  0  0  0
 10 24  1  0  0  0  0
 10 25  1  0  0  0  0
 12 27  1  0  0  0  0
 12 28  1  0  0  0  0
 12 29  1  0  0  0  0
 13 30  1  0  0  0  0
 13 31  1  0  0  0  0
 13 32  1  0  0  0  0
 14 15  2  0  0  0  0
 14 16  1  0  0  0  0
 15 17  1  0  0  0  0
 15 33  1  0  0  0  0
 16 18  2  0  0  0  0
 16 34  1  0  0  0  0
 17 19  2  0  0  0  0
 17 35  1  0  0  0  0
 18 19  1  0  0  0  0
 18 36  1  0  0  0  0
M  END
> <PUBCHEM_COMPOUND_CID>
56929107

> <PUBCHEM_CONFORMER_RMSD>
0.6

> <PUBCHEM_CONFORMER_DIVERSEORDER>
1
15
8
12
17
21
19
11
3
14
6
9
24
20
23
22
4
10
2
16
5
13
7
18
25

> <PUBCHEM_MMFF94_PARTIAL_CHARGES>
23
1 -0.57
10 0.14
11 0.57
14 -0.14
15 -0.15
16 -0.15
17 -0.15
18 -0.15
19 0.08
2 -0.57
23 0.37
26 0.37
3 -0.53
33 0.15
34 0.15
35 0.15
36 0.15
37 0.45
4 -0.73
5 -0.73
6 0.36
8 0.36
9 0.57

> <PUBCHEM_EFFECTIVE_ROTOR_COUNT>
3.8

> <PUBCHEM_PHARMACOPHORE_FEATURES>
8
1 1 acceptor
1 2 acceptor
1 3 donor
1 4 donor
1 5 donor
3 7 12 13 hydrophobe
6 14 15 16 17 18 19 rings
6 4 5 6 8 9 11 rings

> <PUBCHEM_HEAVY_ATOM_COUNT>
19

> <PUBCHEM_ATOM_DEF_STEREO_COUNT>
2

> <PUBCHEM_ATOM_UDEF_STEREO_COUNT>
0

> <PUBCHEM_BOND_DEF_STEREO_COUNT>
0

> <PUBCHEM_BOND_UDEF_STEREO_COUNT>
0

> <PUBCHEM_ISOTOPIC_ATOM_COUNT>
0

> <PUBCHEM_COMPONENT_COUNT>
1

> <PUBCHEM_CACTVS_TAUTO_COUNT>
18

> <PUBCHEM_CONFORMER_ID>
0364AB5300000001

> <PUBCHEM_MMFF94_ENERGY>
58.6217

> <PUBCHEM_FEATURE_SELFOVERLAP>
40.605

> <PUBCHEM_SHAPE_FINGERPRINT>
10366900 7 18187366545197643587
10498660 4 16515951589560626901
11089746 13 13334734678161995062
11806522 49 18343022181564773816
12236239 1 17275108353550015097
12251169 10 11095879363351993233
12553582 1 18340217301310526563
12596602 18 14979954787538969511
12670546 177 17821451256974266677
13464513 79 18131633391691638198
13862211 1 18411699851458626458
14252887 29 17632580418568303902
14350574 20 18409172142744944331
14576447 43 18413388722255468342
15188451 53 14404888246756072013
1813 80 17417826027650138932
18186145 218 18186513320190998953
18222031 100 18202848742822012564
193927 3 17989218048333679263
19433438 38 18040996211401991311
19784866 170 10231758898316085467
19784866 240 17704357684491284261
200 152 18273213097442873273
20374829 77 18409725154144088157
20645477 70 18272368710914460365
20671657 53 18413673491377253473
20871999 31 17967534558511845253
21256008 61 18342738511680348776
21475661 188 14202540783483425478
221357 26 18408599258658950037
221490 88 18265058109545981307
22646028 28 17989207044912309831
231179 274 11891333149241733068
23402539 116 18201443519648450688
23402655 69 18188208689495042125
23559900 14 18261948661004333681
23596394 208 18260257560317066389
2838139 119 15864651573369378430
2871803 45 18408040719082923627
312423 11 17917723430293848345
3472631 163 14996283639244690383
351380 3 17988924470455945111
42630746 31 18200306740748151376
465052 167 17631170965332315751
4921388 177 16298400067089133627
7970288 3 17917714578081610127
9709674 26 18190176987376329067

> <PUBCHEM_SHAPE_MULTIPOLES>
363.44
11.17
1.94
1.12
2.64
0.51
0.2
-4.21
4
-0.58
-0.39
-0.13
-0.01
-0.05

> <PUBCHEM_SHAPE_SELFOVERLAP>
763.2

> <PUBCHEM_SHAPE_VOLUME>
203.4

> <PUBCHEM_COORDINATE_TYPE>
2
5
10

$$$$
