56968444
  -OEChem-03102308002D

 60 59  0     1  0  0  0  0  0999 V2000
    7.1962   -1.0950    0.0000 O   0  0  0  0  0  0  0  0  0  0  0  0
    5.4641   -1.0950    0.0000 O   0  0  0  0  0  0  0  0  0  0  0  0
    3.7320   -0.0950    0.0000 O   0  0  0  0  0  0  0  0  0  0  0  0
    2.8660    1.4050    0.0000 O   0  0  0  0  0  0  0  0  0  0  0  0
   10.6603   -0.0950    0.0000 C   0  0  0  0  0  0  0  0  0  0  0  0
    9.7942    0.4050    0.0000 C   0  0  0  0  0  0  0  0  0  0  0  0
   11.5263    0.4050    0.0000 C   0  0  0  0  0  0  0  0  0  0  0  0
    8.9282   -0.0950    0.0000 C   0  0  0  0  0  0  0  0  0  0  0  0
   12.3923   -0.0950    0.0000 C   0  0  0  0  0  0  0  0  0  0  0  0
    8.0622    0.4050    0.0000 C   0  0  0  0  0  0  0  0  0  0  0  0
   13.2583    0.4050    0.0000 C   0  0  0  0  0  0  0  0  0  0  0  0
    7.1962   -0.0950    0.0000 C   0  0  0  0  0  0  0  0  0  0  0  0
    6.3301    0.4050    0.0000 C   0  0  0  0  0  0  0  0  0  0  0  0
    5.4641   -0.0950    0.0000 C   0  0  3  0  0  0  0  0  0  0  0  0
   14.1244   -0.0950    0.0000 C   0  0  0  0  0  0  0  0  0  0  0  0
   16.7224    0.4050    0.0000 C   0  0  0  0  0  0  0  0  0  0  0  0
   15.8564   -0.0950    0.0000 C   0  0  0  0  0  0  0  0  0  0  0  0
   17.5885   -0.0950    0.0000 C   0  0  0  0  0  0  0  0  0  0  0  0
   14.9904    0.4050    0.0000 C   0  0  0  0  0  0  0  0  0  0  0  0
   18.4545    0.4050    0.0000 C   0  0  0  0  0  0  0  0  0  0  0  0
    4.5981    0.4050    0.0000 C   0  0  0  0  0  0  0  0  0  0  0  0
   19.3205   -0.0950    0.0000 C   0  0  0  0  0  0  0  0  0  0  0  0
    2.8660    0.4050    0.0000 C   0  0  0  0  0  0  0  0  0  0  0  0
    2.0000   -0.0950    0.0000 C   0  0  0  0  0  0  0  0  0  0  0  0
   10.2617   -0.5699    0.0000 H   0  0  0  0  0  0  0  0  0  0  0  0
   11.0588   -0.5699    0.0000 H   0  0  0  0  0  0  0  0  0  0  0  0
   10.1928    0.8799    0.0000 H   0  0  0  0  0  0  0  0  0  0  0  0
    9.3957    0.8799    0.0000 H   0  0  0  0  0  0  0  0  0  0  0  0
   11.9248    0.8799    0.0000 H   0  0  0  0  0  0  0  0  0  0  0  0
   11.1278    0.8799    0.0000 H   0  0  0  0  0  0  0  0  0  0  0  0
    8.5297   -0.5699    0.0000 H   0  0  0  0  0  0  0  0  0  0  0  0
    9.3267   -0.5699    0.0000 H   0  0  0  0  0  0  0  0  0  0  0  0
   11.9938   -0.5699    0.0000 H   0  0  0  0  0  0  0  0  0  0  0  0
   12.7908   -0.5699    0.0000 H   0  0  0  0  0  0  0  0  0  0  0  0
    8.4607    0.8799    0.0000 H   0  0  0  0  0  0  0  0  0  0  0  0
    7.6636    0.8799    0.0000 H   0  0  0  0  0  0  0  0  0  0  0  0
   13.6569    0.8799    0.0000 H   0  0  0  0  0  0  0  0  0  0  0  0
   12.8598    0.8799    0.0000 H   0  0  0  0  0  0  0  0  0  0  0  0
    6.7287    0.8799    0.0000 H   0  0  0  0  0  0  0  0  0  0  0  0
    5.9316    0.8799    0.0000 H   0  0  0  0  0  0  0  0  0  0  0  0
    6.0010   -0.4050    0.0000 H   0  0  0  0  0  0  0  0  0  0  0  0
   14.1244   -0.7150    0.0000 H   0  0  0  0  0  0  0  0  0  0  0  0
   17.1210    0.8799    0.0000 H   0  0  0  0  0  0  0  0  0  0  0  0
   16.3239    0.8799    0.0000 H   0  0  0  0  0  0  0  0  0  0  0  0
   15.4579   -0.5699    0.0000 H   0  0  0  0  0  0  0  0  0  0  0  0
   16.2549   -0.5699    0.0000 H   0  0  0  0  0  0  0  0  0  0  0  0
   17.1899   -0.5699    0.0000 H   0  0  0  0  0  0  0  0  0  0  0  0
   17.9870   -0.5699    0.0000 H   0  0  0  0  0  0  0  0  0  0  0  0
   14.9904    1.0250    0.0000 H   0  0  0  0  0  0  0  0  0  0  0  0
   18.8530    0.8799    0.0000 H   0  0  0  0  0  0  0  0  0  0  0  0
   18.0560    0.8799    0.0000 H   0  0  0  0  0  0  0  0  0  0  0  0
    4.9966    0.8799    0.0000 H   0  0  0  0  0  0  0  0  0  0  0  0
    4.1996    0.8799    0.0000 H   0  0  0  0  0  0  0  0  0  0  0  0
   19.0105   -0.6319    0.0000 H   0  0  0  0  0  0  0  0  0  0  0  0
   19.8574   -0.4050    0.0000 H   0  0  0  0  0  0  0  0  0  0  0  0
   19.6305    0.4419    0.0000 H   0  0  0  0  0  0  0  0  0  0  0  0
    4.9272   -1.4050    0.0000 H   0  0  0  0  0  0  0  0  0  0  0  0
    1.6900    0.4419    0.0000 H   0  0  0  0  0  0  0  0  0  0  0  0
    1.4631   -0.4050    0.0000 H   0  0  0  0  0  0  0  0  0  0  0  0
    2.3100   -0.6319    0.0000 H   0  0  0  0  0  0  0  0  0  0  0  0
  1 12  2  0  0  0  0
  2 14  1  0  0  0  0
  2 57  1  0  0  0  0
  3 21  1  0  0  0  0
  3 23  1  0  0  0  0
  4 23  2  0  0  0  0
  5  6  1  0  0  0  0
  5  7  1  0  0  0  0
  5 25  1  0  0  0  0
  5 26  1  0  0  0  0
  6  8  1  0  0  0  0
  6 27  1  0  0  0  0
  6 28  1  0  0  0  0
  7  9  1  0  0  0  0
  7 29  1  0  0  0  0
  7 30  1  0  0  0  0
  8 10  1  0  0  0  0
  8 31  1  0  0  0  0
  8 32  1  0  0  0  0
  9 11  1  0  0  0  0
  9 33  1  0  0  0  0
  9 34  1  0  0  0  0
 10 12  1  0  0  0  0
 10 35  1  0  0  0  0
 10 36  1  0  0  0  0
 11 15  1  0  0  0  0
 11 37  1  0  0  0  0
 11 38  1  0  0  0  0
 12 13  1  0  0  0  0
 13 14  1  0  0  0  0
 13 39  1  0  0  0  0
 13 40  1  0  0  0  0
 14 21  1  0  0  0  0
 14 41  1  0  0  0  0
 15 19  2  0  0  0  0
 15 42  1  0  0  0  0
 16 17  1  0  0  0  0
 16 18  1  0  0  0  0
 16 43  1  0  0  0  0
 16 44  1  0  0  0  0
 17 19  1  0  0  0  0
 17 45  1  0  0  0  0
 17 46  1  0  0  0  0
 18 20  1  0  0  0  0
 18 47  1  0  0  0  0
 18 48  1  0  0  0  0
 19 49  1  0  0  0  0
 20 22  1  0  0  0  0
 20 50  1  0  0  0  0
 20 51  1  0  0  0  0
 21 52  1  0  0  0  0
 21 53  1  0  0  0  0
 22 54  1  0  0  0  0
 22 55  1  0  0  0  0
 22 56  1  0  0  0  0
 23 24  1  0  0  0  0
 24 58  1  0  0  0  0
 24 59  1  0  0  0  0
 24 60  1  0  0  0  0
M  END
> <PUBCHEM_COMPOUND_CID>
56968444

> <PUBCHEM_COMPOUND_CANONICALIZED>
1

> <PUBCHEM_CACTVS_COMPLEXITY>
350

> <PUBCHEM_CACTVS_HBOND_ACCEPTOR>
4

> <PUBCHEM_CACTVS_HBOND_DONOR>
1

> <PUBCHEM_CACTVS_ROTATABLE_BOND>
17

> <PUBCHEM_CACTVS_SUBSKEYS>
AAADcfB4OAAAAAAAAAAAAAAAAAAAAAAAAAAAAAAAAAAAAAAAAAAAGgAACAAACBSggAICCAAABgCIAKDSCAAAAAAgAAAICAEAAAgBEBYAAQACQAAEoAALAAOKyKCAAAAAAAAAAAAAAAAAAAAAAAAAAAAAAA==

> <PUBCHEM_IUPAC_OPENEYE_NAME>
[(E)-2-hydroxy-4-oxo-octadec-12-enyl] acetate

> <PUBCHEM_IUPAC_CAS_NAME>
acetic acid [(E)-2-hydroxy-4-oxooctadec-12-enyl] ester

> <PUBCHEM_IUPAC_NAME_MARKUP>
[(<I>E</I>)-2-hydroxy-4-oxooctadec-12-enyl] acetate

> <PUBCHEM_IUPAC_NAME>
[(E)-2-hydroxy-4-oxooctadec-12-enyl] acetate

> <PUBCHEM_IUPAC_SYSTEMATIC_NAME>
[(E)-2-oxidanyl-4-oxidanylidene-octadec-12-enyl] ethanoate

> <PUBCHEM_IUPAC_TRADITIONAL_NAME>
acetic acid [(E)-2-hydroxy-4-keto-octadec-12-enyl] ester

> <PUBCHEM_IUPAC_INCHI>
InChI=1S/C20H36O4/c1-3-4-5-6-7-8-9-10-11-12-13-14-15-19(22)16-20(23)17-24-18(2)21/h7-8,20,23H,3-6,9-17H2,1-2H3/b8-7+

> <PUBCHEM_IUPAC_INCHIKEY>
JTKQJCKMDVTZDT-BQYQJAHWSA-N

> <PUBCHEM_XLOGP3_AA>
5

> <PUBCHEM_EXACT_MASS>
340.26135963

> <PUBCHEM_MOLECULAR_FORMULA>
C20H36O4

> <PUBCHEM_MOLECULAR_WEIGHT>
340.5

> <PUBCHEM_OPENEYE_CAN_SMILES>
CCCCCC=CCCCCCCCC(=O)CC(COC(=O)C)O

> <PUBCHEM_OPENEYE_ISO_SMILES>
CCCCC/C=C/CCCCCCCC(=O)CC(COC(=O)C)O

> <PUBCHEM_CACTVS_TPSA>
63.6

> <PUBCHEM_MONOISOTOPIC_WEIGHT>
340.26135963

> <PUBCHEM_TOTAL_CHARGE>
0

> <PUBCHEM_HEAVY_ATOM_COUNT>
24

> <PUBCHEM_ATOM_DEF_STEREO_COUNT>
0

> <PUBCHEM_ATOM_UDEF_STEREO_COUNT>
1

> <PUBCHEM_BOND_DEF_STEREO_COUNT>
1

> <PUBCHEM_BOND_UDEF_STEREO_COUNT>
0

> <PUBCHEM_ISOTOPIC_ATOM_COUNT>
0

> <PUBCHEM_COMPONENT_COUNT>
1

> <PUBCHEM_CACTVS_TAUTO_COUNT>
-1

> <PUBCHEM_COORDINATE_TYPE>
1
5
255

> <PUBCHEM_BONDANNOTATIONS>
14  2  3

$$$$
