57387219
  -OEChem-03112307443D

 33 35  0     1  0  0  0  0  0999 V2000
   -1.3125   -0.1510    0.6590 O   0  0  0  0  0  0  0  0  0  0  0  0
   -0.6358   -0.5039   -1.6105 O   0  0  0  0  0  0  0  0  0  0  0  0
   -4.1600    1.7107   -0.4227 O   0  0  0  0  0  0  0  0  0  0  0  0
   -3.0603   -1.6691    2.2514 O   0  0  0  0  0  0  0  0  0  0  0  0
    4.5745    1.5882    1.2800 O   0  0  0  0  0  0  0  0  0  0  0  0
    1.6371    0.0807   -0.2103 N   0  0  0  0  0  0  0  0  0  0  0  0
   -0.7709    0.4454   -0.5371 C   0  0  1  0  0  0  0  0  0  0  0  0
   -1.8018    1.4857   -0.9624 C   0  0  0  0  0  0  0  0  0  0  0  0
   -3.0950    0.7968   -0.5861 C   0  0  1  0  0  0  0  0  0  0  0  0
   -2.7174    0.1439    0.7340 C   0  0  1  0  0  0  0  0  0  0  0  0
    0.5891    1.0856   -0.2520 C   0  0  0  0  0  0  0  0  0  0  0  0
    1.4812   -1.1830   -0.7179 C   0  0  0  0  0  0  0  0  0  0  0  0
    0.1815   -1.6341   -1.2770 C   0  0  0  0  0  0  0  0  0  0  0  0
   -3.4897   -1.1342    1.0102 C   0  0  0  0  0  0  0  0  0  0  0  0
    2.9040    0.2523    0.2688 C   0  0  0  0  0  0  0  0  0  0  0  0
    2.6852   -1.8378   -0.5532 C   0  0  0  0  0  0  0  0  0  0  0  0
    3.5819   -0.9315    0.0691 C   0  0  0  0  0  0  0  0  0  0  0  0
    3.4091    1.4551    0.8566 C   0  0  0  0  0  0  0  0  0  0  0  0
   -1.7650    1.7325   -2.0283 H   0  0  0  0  0  0  0  0  0  0  0  0
   -1.6994    2.4191   -0.3944 H   0  0  0  0  0  0  0  0  0  0  0  0
   -3.3730    0.0521   -1.3414 H   0  0  0  0  0  0  0  0  0  0  0  0
   -2.8509    0.8360    1.5749 H   0  0  0  0  0  0  0  0  0  0  0  0
    0.5764    1.6059    0.7111 H   0  0  0  0  0  0  0  0  0  0  0  0
    0.8762    1.7764   -1.0532 H   0  0  0  0  0  0  0  0  0  0  0  0
    0.3365   -2.2103   -2.1945 H   0  0  0  0  0  0  0  0  0  0  0  0
   -0.3533   -2.2704   -0.5637 H   0  0  0  0  0  0  0  0  0  0  0  0
   -3.2900   -1.8859    0.2394 H   0  0  0  0  0  0  0  0  0  0  0  0
   -4.5658   -0.9420    1.0602 H   0  0  0  0  0  0  0  0  0  0  0  0
   -4.2789    2.1741   -1.2692 H   0  0  0  0  0  0  0  0  0  0  0  0
    2.8935   -2.8580   -0.8443 H   0  0  0  0  0  0  0  0  0  0  0  0
    4.6107   -1.1288    0.3386 H   0  0  0  0  0  0  0  0  0  0  0  0
   -3.5677   -2.4847    2.4025 H   0  0  0  0  0  0  0  0  0  0  0  0
    2.7231    2.3146    0.9292 H   0  0  0  0  0  0  0  0  0  0  0  0
  1  7  1  0  0  0  0
  1 10  1  0  0  0  0
  2  7  1  0  0  0  0
  2 13  1  0  0  0  0
  3  9  1  0  0  0  0
  3 29  1  0  0  0  0
  4 14  1  0  0  0  0
  4 32  1  0  0  0  0
  5 18  2  0  0  0  0
  6 11  1  0  0  0  0
  6 12  1  0  0  0  0
  6 15  1  0  0  0  0
  7  8  1  0  0  0  0
  7 11  1  0  0  0  0
  8  9  1  0  0  0  0
  8 19  1  0  0  0  0
  8 20  1  0  0  0  0
  9 10  1  0  0  0  0
  9 21  1  0  0  0  0
 10 14  1  0  0  0  0
 10 22  1  0  0  0  0
 11 23  1  0  0  0  0
 11 24  1  0  0  0  0
 12 13  1  0  0  0  0
 12 16  2  0  0  0  0
 13 25  1  0  0  0  0
 13 26  1  0  0  0  0
 14 27  1  0  0  0  0
 14 28  1  0  0  0  0
 15 17  2  0  0  0  0
 15 18  1  0  0  0  0
 16 17  1  0  0  0  0
 16 30  1  0  0  0  0
 17 31  1  0  0  0  0
 18 33  1  0  0  0  0
M  END
> <PUBCHEM_COMPOUND_CID>
57387219

> <PUBCHEM_CONFORMER_RMSD>
0.6

> <PUBCHEM_CONFORMER_DIVERSEORDER>
1
7
12
6
10
5
3
8
11
4
9
2

> <PUBCHEM_MMFF94_PARTIAL_CHARGES>
22
1 -0.56
10 0.28
11 0.26
12 -0.33
13 0.46
14 0.28
15 -0.24
16 -0.15
17 -0.15
18 0.59
2 -0.56
29 0.4
3 -0.68
30 0.15
31 0.15
32 0.4
33 0.06
4 -0.68
5 -0.57
6 0.05
7 0.56
9 0.28

> <PUBCHEM_EFFECTIVE_ROTOR_COUNT>
3.4

> <PUBCHEM_PHARMACOPHORE_FEATURES>
11
1 1 acceptor
1 2 acceptor
1 3 acceptor
1 3 donor
1 4 acceptor
1 4 donor
1 5 acceptor
1 6 cation
5 1 7 8 9 10 rings
5 6 12 15 16 17 rings
6 2 6 7 11 12 13 rings

> <PUBCHEM_HEAVY_ATOM_COUNT>
18

> <PUBCHEM_ATOM_DEF_STEREO_COUNT>
3

> <PUBCHEM_ATOM_UDEF_STEREO_COUNT>
0

> <PUBCHEM_BOND_DEF_STEREO_COUNT>
0

> <PUBCHEM_BOND_UDEF_STEREO_COUNT>
0

> <PUBCHEM_ISOTOPIC_ATOM_COUNT>
0

> <PUBCHEM_COMPONENT_COUNT>
1

> <PUBCHEM_CACTVS_TAUTO_COUNT>
1

> <PUBCHEM_CONFORMER_ID>
036BA8D300000001

> <PUBCHEM_MMFF94_ENERGY>
37.2043

> <PUBCHEM_FEATURE_SELFOVERLAP>
55.967

> <PUBCHEM_SHAPE_FINGERPRINT>
10366900 7 18265618688661624542
10608611 8 18339918195514651820
10610426 29 15719948171667335759
11471102 22 18272097049848363134
11615757 297 17346596369946076391
12236239 1 16343411821944985748
12346177 29 17458343040024000511
12390115 104 17556859453961897616
12403259 118 18189323723198416396
12491281 212 14979962479513698895
12500047 106 17823422600061524391
12507560 40 18411139134154534264
12633257 1 18191871119407992538
12824470 246 15502952950988283139
13083527 12 17901112133391354343
13214271 11 18334849550005468332
13294875 104 16458804201475656933
13296908 3 18261117352408107230
13583140 156 18336259076810055234
14026960 21 18339078301933272508
14178342 30 17530964665983007907
14289901 80 17749117677207465236
15099037 37 18113898320458804609
15219456 202 18411138021736912077
15309172 13 17988926664788470919
15375358 24 18335976489457868357
15534591 1 15625953078650569611
15653759 3 18187934945142790615
15775835 57 17917701427165496932
16945 1 18265059204709757951
18175812 5 18336548226666210879
18186145 218 17489592272765756204
18219364 16 18130782421046906360
19049666 15 18047471127761045836
200 152 17703216318233226509
20279233 1 18334577906335193375
20361792 2 14273460287996469199
204376 136 18059851822390710080
20645477 70 18059005077840609294
20681677 76 18411696590971417013
20715346 28 18410295791661643150
21452121 199 16954809767260049155
21756936 100 16343432820446154674
21864079 5 17060352794205327000
22854114 111 18272927211619275532
22943178 12 18335422326806957662
22959321 60 18411134753398831112
23402539 116 18187921730425363085
23557571 272 18187661184196349517
23559900 14 17968946275533702734
2748010 2 18339642248355556020
3086196 2 17749672999436028235
474 4 17631439207092885032
49207404 50 18410579517317248410
495365 180 18057022654117808057
5104073 3 18411136896687557417
6049 1 18338248059011077676
633830 44 16702039559646703397
77492 1 16271921580212415997
9882013 296 18341618182177375131

> <PUBCHEM_SHAPE_MULTIPOLES>
336.1
7.52
1.94
1.41
0.77
0.11
-0.42
-1.83
-2.81
0.57
-0.05
-0.93
0.41
2

> <PUBCHEM_SHAPE_SELFOVERLAP>
725.288

> <PUBCHEM_SHAPE_VOLUME>
185.4

> <PUBCHEM_COORDINATE_TYPE>
2
5
10

$$$$
