58473849
  -OEChem-03092320443D

 53 53  0     1  0  0  0  0  0999 V2000
   -0.7055    1.1085    2.3805 O   0  0  0  0  0  0  0  0  0  0  0  0
    0.3780    2.9582    0.4013 O   0  0  0  0  0  0  0  0  0  0  0  0
    2.2996   -1.2986   -0.0530 O   0  0  0  0  0  0  0  0  0  0  0  0
   -1.6887    1.1266   -0.9426 O   0  0  0  0  0  0  0  0  0  0  0  0
    2.6761    2.6665   -1.3178 O   0  0  0  0  0  0  0  0  0  0  0  0
    0.2021   -0.6943    1.0204 C   0  0  2  0  0  0  0  0  0  0  0  0
   -0.4521    0.7022    1.0480 C   0  0  2  0  0  0  0  0  0  0  0  0
    0.5863    1.6025    0.4434 C   0  0  0  0  0  0  0  0  0  0  0  0
    1.4927   -0.4387    0.2696 C   0  0  0  0  0  0  0  0  0  0  0  0
   -0.5976   -1.8111    0.3668 C   0  0  0  0  0  0  0  0  0  0  0  0
    1.6812    0.9928   -0.0158 C   0  0  0  0  0  0  0  0  0  0  0  0
   -1.7220    0.8466    0.2550 C   0  0  0  0  0  0  0  0  0  0  0  0
    2.8215    1.6306   -0.6494 C   0  0  0  0  0  0  0  0  0  0  0  0
   -3.0148    0.6322    1.0264 C   0  0  0  0  0  0  0  0  0  0  0  0
    0.0019   -3.1559    0.6599 C   0  0  0  0  0  0  0  0  0  0  0  0
    4.1981    0.9727   -0.4810 C   0  0  0  0  0  0  0  0  0  0  0  0
    0.5262   -4.0340   -0.2159 C   0  0  0  0  0  0  0  0  0  0  0  0
   -4.0646   -0.0035    0.1672 C   0  0  0  0  0  0  0  0  0  0  0  0
    5.2475    1.7779   -1.2402 C   0  0  0  0  0  0  0  0  0  0  0  0
    4.5789    0.8364    0.9913 C   0  0  0  0  0  0  0  0  0  0  0  0
    0.5712   -3.7109   -1.6857 C   0  0  0  0  0  0  0  0  0  0  0  0
    1.1128   -5.3692    0.1446 C   0  0  0  0  0  0  0  0  0  0  0  0
   -5.0031    0.6188   -0.5712 C   0  0  0  0  0  0  0  0  0  0  0  0
   -6.0326   -0.0773   -1.4155 C   0  0  0  0  0  0  0  0  0  0  0  0
   -5.0931    2.1210   -0.5864 C   0  0  0  0  0  0  0  0  0  0  0  0
    0.4832   -0.9780    2.0448 H   0  0  0  0  0  0  0  0  0  0  0  0
   -1.6045   -1.8399    0.7984 H   0  0  0  0  0  0  0  0  0  0  0  0
   -0.7339   -1.6254   -0.7014 H   0  0  0  0  0  0  0  0  0  0  0  0
   -0.9198    2.0565    2.3909 H   0  0  0  0  0  0  0  0  0  0  0  0
   -3.3317    1.5835    1.4625 H   0  0  0  0  0  0  0  0  0  0  0  0
   -2.8365   -0.0503    1.8654 H   0  0  0  0  0  0  0  0  0  0  0  0
   -0.0044   -3.4407    1.7115 H   0  0  0  0  0  0  0  0  0  0  0  0
    4.1630   -0.0169   -0.9491 H   0  0  0  0  0  0  0  0  0  0  0  0
   -0.5118    3.1388    0.7480 H   0  0  0  0  0  0  0  0  0  0  0  0
   -4.0417   -1.0920    0.1417 H   0  0  0  0  0  0  0  0  0  0  0  0
    5.3371    2.7954   -0.8433 H   0  0  0  0  0  0  0  0  0  0  0  0
    4.9932    1.8555   -2.3031 H   0  0  0  0  0  0  0  0  0  0  0  0
    6.2306    1.3004   -1.1682 H   0  0  0  0  0  0  0  0  0  0  0  0
    4.5679    1.8121    1.4900 H   0  0  0  0  0  0  0  0  0  0  0  0
    3.8948    0.1835    1.5400 H   0  0  0  0  0  0  0  0  0  0  0  0
    5.5847    0.4152    1.0937 H   0  0  0  0  0  0  0  0  0  0  0  0
   -0.2507   -4.2138   -2.2054 H   0  0  0  0  0  0  0  0  0  0  0  0
    0.5328   -2.6451   -1.9179 H   0  0  0  0  0  0  0  0  0  0  0  0
    1.5121   -4.0709   -2.1182 H   0  0  0  0  0  0  0  0  0  0  0  0
    1.0375   -5.5650    1.2193 H   0  0  0  0  0  0  0  0  0  0  0  0
    2.1720   -5.4091   -0.1290 H   0  0  0  0  0  0  0  0  0  0  0  0
    0.5838   -6.1717   -0.3794 H   0  0  0  0  0  0  0  0  0  0  0  0
   -7.0413    0.1886   -1.0835 H   0  0  0  0  0  0  0  0  0  0  0  0
   -5.9221    0.2088   -2.4663 H   0  0  0  0  0  0  0  0  0  0  0  0
   -5.9360   -1.1663   -1.3534 H   0  0  0  0  0  0  0  0  0  0  0  0
   -5.1594    2.4778   -1.6206 H   0  0  0  0  0  0  0  0  0  0  0  0
   -4.2365    2.6326   -0.1428 H   0  0  0  0  0  0  0  0  0  0  0  0
   -5.9947    2.4468   -0.0571 H   0  0  0  0  0  0  0  0  0  0  0  0
  1  7  1  0  0  0  0
  1 29  1  0  0  0  0
  2  8  1  0  0  0  0
  2 34  1  0  0  0  0
  3  9  2  0  0  0  0
  4 12  2  0  0  0  0
  5 13  2  0  0  0  0
  6  7  1  0  0  0  0
  6  9  1  0  0  0  0
  6 10  1  0  0  0  0
  6 26  1  0  0  0  0
  7  8  1  0  0  0  0
  7 12  1  0  0  0  0
  8 11  2  0  0  0  0
  9 11  1  0  0  0  0
 10 15  1  0  0  0  0
 10 27  1  0  0  0  0
 10 28  1  0  0  0  0
 11 13  1  0  0  0  0
 12 14  1  0  0  0  0
 13 16  1  0  0  0  0
 14 18  1  0  0  0  0
 14 30  1  0  0  0  0
 14 31  1  0  0  0  0
 15 17  2  0  0  0  0
 15 32  1  0  0  0  0
 16 19  1  0  0  0  0
 16 20  1  0  0  0  0
 16 33  1  0  0  0  0
 17 21  1  0  0  0  0
 17 22  1  0  0  0  0
 18 23  2  0  0  0  0
 18 35  1  0  0  0  0
 19 36  1  0  0  0  0
 19 37  1  0  0  0  0
 19 38  1  0  0  0  0
 20 39  1  0  0  0  0
 20 40  1  0  0  0  0
 20 41  1  0  0  0  0
 21 42  1  0  0  0  0
 21 43  1  0  0  0  0
 21 44  1  0  0  0  0
 22 45  1  0  0  0  0
 22 46  1  0  0  0  0
 22 47  1  0  0  0  0
 23 24  1  0  0  0  0
 23 25  1  0  0  0  0
 24 48  1  0  0  0  0
 24 49  1  0  0  0  0
 24 50  1  0  0  0  0
 25 51  1  0  0  0  0
 25 52  1  0  0  0  0
 25 53  1  0  0  0  0
M  END
> <PUBCHEM_COMPOUND_CID>
58473849

> <PUBCHEM_CONFORMER_RMSD>
1

> <PUBCHEM_CONFORMER_DIVERSEORDER>
2
45
30
8
60
52
103
88
54
74
32
26
23
43
9
56
87
29
69
7
101
62
66
86
70
50
95
90
24
34
71
46
33
15
89
67
98
106
17
41
64
76
11
59
83
35
58
19
63
84
22
73
81
79
80
78
94
44
96
48
47
68
42
65
93
55
85
28
108
107
14
39
61
77
99
100
102
82
13
91
12
27
53
25
5
49
31
104
38
16
18
40
97
10
57
6
4
20
105
37
75
36
92
3
51
21
72
1

> <PUBCHEM_MMFF94_PARTIAL_CHARGES>
27
1 -0.68
10 0.14
11 0.03
12 0.45
13 0.49
14 0.2
15 -0.29
16 0.06
17 -0.28
18 -0.29
2 -0.53
21 0.14
22 0.14
23 -0.28
24 0.14
25 0.14
29 0.4
3 -0.57
32 0.15
34 0.45
35 0.15
4 -0.57
5 -0.57
6 0.06
7 0.48
8 -0.06
9 0.49

> <PUBCHEM_EFFECTIVE_ROTOR_COUNT>
7.4

> <PUBCHEM_PHARMACOPHORE_FEATURES>
10
1 1 acceptor
1 1 donor
1 2 donor
1 3 acceptor
1 4 acceptor
1 5 acceptor
3 16 19 20 hydrophobe
3 17 21 22 hydrophobe
3 23 24 25 hydrophobe
5 6 7 8 9 11 rings

> <PUBCHEM_HEAVY_ATOM_COUNT>
25

> <PUBCHEM_ATOM_DEF_STEREO_COUNT>
2

> <PUBCHEM_ATOM_UDEF_STEREO_COUNT>
0

> <PUBCHEM_BOND_DEF_STEREO_COUNT>
0

> <PUBCHEM_BOND_UDEF_STEREO_COUNT>
0

> <PUBCHEM_ISOTOPIC_ATOM_COUNT>
0

> <PUBCHEM_COMPONENT_COUNT>
1

> <PUBCHEM_CACTVS_TAUTO_COUNT>
36

> <PUBCHEM_CONFORMER_ID>
037C3D7900000002

> <PUBCHEM_MMFF94_ENERGY>
42.1189

> <PUBCHEM_FEATURE_SELFOVERLAP>
50.749

> <PUBCHEM_SHAPE_FINGERPRINT>
10693767 8 18131067082763049406
11069576 57 18056460778428866639
11421498 54 18130792222626525769
11488393 25 18116988888852271987
12293681 160 18060144262155450480
12553582 1 17547025030957709483
13052359 8 18267586999523154866
13083527 12 17975679611427312738
13140716 1 18269015127794288306
13149001 5 17843400936454261856
13257819 37 18263940984173214542
133893 2 18052838952133958258
13583140 156 17096662069916541848
13836976 161 18408315593053570655
13911987 19 18336558199623093740
13968360 50 18336536158003787815
14508225 48 17473256574950938927
14790565 3 18410292523192141289
14863182 85 18129927988996247667
16752209 62 18196090177900830778
167882 2 18335705975074413626
17138139 8 17773294928822712335
19427546 20 17760100896980061060
20028762 73 18272081648507603342
20197701 30 18411132562928580418
20602899 9 18270413804988849641
20645477 70 18334854962107106579
20775438 99 16833158791688217607
21054139 6 18271793666760375711
21344244 181 17916882299403244366
21344244 246 18340207392953700974
21452121 199 17979906117034161755
22182313 1 18193866879221154826
23559900 14 18266169526796780243
23566358 27 17979932505312922945
266924 1 17843974641390745497
298252 57 18261673769779575481
3060560 45 18408036333937379181
352729 6 18266197164984942650
38695281 34 18409446998644327999
4017518 198 18343866602986643534
4280585 95 17617370684942933419
4409770 3 18121790692175038851
46194498 28 18044083563402784565
8272917 22 18338237047084338589

> <PUBCHEM_SHAPE_MULTIPOLES>
485.14
9.47
5.03
1.4
8.29
9.53
0.09
-8.06
-4.26
-3.32
-0.97
0.07
-0.16
-0.52

> <PUBCHEM_SHAPE_SELFOVERLAP>
993.53

> <PUBCHEM_SHAPE_VOLUME>
279.9

> <PUBCHEM_COORDINATE_TYPE>
2
5
10

$$$$
