58473846
  -OEChem-03092321423D

 56 56  0     1  0  0  0  0  0999 V2000
   -0.8565    0.1552    2.5249 O   0  0  0  0  0  0  0  0  0  0  0  0
    1.0054    2.2372    1.6819 O   0  0  0  0  0  0  0  0  0  0  0  0
    2.0053   -1.8488   -0.3976 O   0  0  0  0  0  0  0  0  0  0  0  0
   -1.0700    1.7711   -0.5333 O   0  0  0  0  0  0  0  0  0  0  0  0
    3.7738    1.5690    1.2336 O   0  0  0  0  0  0  0  0  0  0  0  0
   -0.0914   -1.1401    0.6117 C   0  0  2  0  0  0  0  0  0  0  0  0
   -0.4159    0.2553    1.1830 C   0  0  2  0  0  0  0  0  0  0  0  0
    0.8993    0.9788    1.1451 C   0  0  0  0  0  0  0  0  0  0  0  0
    1.3549   -0.9936    0.1858 C   0  0  0  0  0  0  0  0  0  0  0  0
    1.9078    0.3124    0.5793 C   0  0  0  0  0  0  0  0  0  0  0  0
   -0.9545   -1.6232   -0.5440 C   0  0  0  0  0  0  0  0  0  0  0  0
   -1.4216    1.0627    0.4090 C   0  0  0  0  0  0  0  0  0  0  0  0
    3.2689    0.7891    0.4104 C   0  0  0  0  0  0  0  0  0  0  0  0
    4.0685    0.2729   -0.7951 C   0  0  1  0  0  0  0  0  0  0  0  0
   -2.8654    0.9445    0.8712 C   0  0  0  0  0  0  0  0  0  0  0  0
   -0.7403   -3.0847   -0.8120 C   0  0  0  0  0  0  0  0  0  0  0  0
    4.5102    1.4079   -1.7315 C   0  0  0  0  0  0  0  0  0  0  0  0
    5.2809   -0.4983   -0.2765 C   0  0  0  0  0  0  0  0  0  0  0  0
   -1.4423   -4.1247   -0.3234 C   0  0  0  0  0  0  0  0  0  0  0  0
   -3.8173    1.0344   -0.2821 C   0  0  0  0  0  0  0  0  0  0  0  0
    3.3324    2.1955   -2.2912 C   0  0  0  0  0  0  0  0  0  0  0  0
   -1.1747   -5.5702   -0.6327 C   0  0  0  0  0  0  0  0  0  0  0  0
   -2.6074   -3.8913    0.6013 C   0  0  0  0  0  0  0  0  0  0  0  0
   -4.4153    2.1407   -0.7635 C   0  0  0  0  0  0  0  0  0  0  0  0
   -5.3643    2.1662   -1.9281 C   0  0  0  0  0  0  0  0  0  0  0  0
   -4.1705    3.4819   -0.1263 C   0  0  0  0  0  0  0  0  0  0  0  0
   -0.1079   -1.8730    1.4310 H   0  0  0  0  0  0  0  0  0  0  0  0
   -2.0144   -1.4392   -0.3563 H   0  0  0  0  0  0  0  0  0  0  0  0
   -0.7166   -1.0738   -1.4643 H   0  0  0  0  0  0  0  0  0  0  0  0
    3.4623   -0.4045   -1.4000 H   0  0  0  0  0  0  0  0  0  0  0  0
   -0.8565    1.0393    2.9287 H   0  0  0  0  0  0  0  0  0  0  0  0
   -3.0542    1.6924    1.6462 H   0  0  0  0  0  0  0  0  0  0  0  0
   -3.0257   -0.0342    1.3383 H   0  0  0  0  0  0  0  0  0  0  0  0
    0.0854   -3.3138   -1.4840 H   0  0  0  0  0  0  0  0  0  0  0  0
    5.1726    2.1011   -1.1988 H   0  0  0  0  0  0  0  0  0  0  0  0
    5.0868    0.9909   -2.5660 H   0  0  0  0  0  0  0  0  0  0  0  0
    0.1229    2.5150    1.9793 H   0  0  0  0  0  0  0  0  0  0  0  0
    5.9567    0.1505    0.2917 H   0  0  0  0  0  0  0  0  0  0  0  0
    4.9694   -1.3125    0.3869 H   0  0  0  0  0  0  0  0  0  0  0  0
    5.8479   -0.9355   -1.1049 H   0  0  0  0  0  0  0  0  0  0  0  0
   -4.0282    0.0894   -0.7804 H   0  0  0  0  0  0  0  0  0  0  0  0
    2.6332    1.5364   -2.8155 H   0  0  0  0  0  0  0  0  0  0  0  0
    2.7869    2.7201   -1.5009 H   0  0  0  0  0  0  0  0  0  0  0  0
    3.6885    2.9466   -3.0035 H   0  0  0  0  0  0  0  0  0  0  0  0
   -0.3345   -5.6851   -1.3254 H   0  0  0  0  0  0  0  0  0  0  0  0
   -2.0542   -6.0307   -1.0941 H   0  0  0  0  0  0  0  0  0  0  0  0
   -0.9307   -6.1186    0.2827 H   0  0  0  0  0  0  0  0  0  0  0  0
   -2.5551   -4.5856    1.4478 H   0  0  0  0  0  0  0  0  0  0  0  0
   -2.6454   -2.8900    1.0363 H   0  0  0  0  0  0  0  0  0  0  0  0
   -3.5484   -4.0729    0.0719 H   0  0  0  0  0  0  0  0  0  0  0  0
   -6.3381    2.5585   -1.6180 H   0  0  0  0  0  0  0  0  0  0  0  0
   -4.9696    2.7996   -2.7289 H   0  0  0  0  0  0  0  0  0  0  0  0
   -5.5230    1.1646   -2.3412 H   0  0  0  0  0  0  0  0  0  0  0  0
   -3.9320    4.2214   -0.8993 H   0  0  0  0  0  0  0  0  0  0  0  0
   -3.3399    3.5042    0.5821 H   0  0  0  0  0  0  0  0  0  0  0  0
   -5.0721    3.8173    0.3969 H   0  0  0  0  0  0  0  0  0  0  0  0
  1  7  1  0  0  0  0
  1 31  1  0  0  0  0
  2  8  1  0  0  0  0
  2 37  1  0  0  0  0
  3  9  2  0  0  0  0
  4 12  2  0  0  0  0
  5 13  2  0  0  0  0
  6  7  1  0  0  0  0
  6  9  1  0  0  0  0
  6 11  1  0  0  0  0
  6 27  1  0  0  0  0
  7  8  1  0  0  0  0
  7 12  1  0  0  0  0
  8 10  2  0  0  0  0
  9 10  1  0  0  0  0
 10 13  1  0  0  0  0
 11 16  1  0  0  0  0
 11 28  1  0  0  0  0
 11 29  1  0  0  0  0
 12 15  1  0  0  0  0
 13 14  1  0  0  0  0
 14 17  1  0  0  0  0
 14 18  1  0  0  0  0
 14 30  1  0  0  0  0
 15 20  1  0  0  0  0
 15 32  1  0  0  0  0
 15 33  1  0  0  0  0
 16 19  2  0  0  0  0
 16 34  1  0  0  0  0
 17 21  1  0  0  0  0
 17 35  1  0  0  0  0
 17 36  1  0  0  0  0
 18 38  1  0  0  0  0
 18 39  1  0  0  0  0
 18 40  1  0  0  0  0
 19 22  1  0  0  0  0
 19 23  1  0  0  0  0
 20 24  2  0  0  0  0
 20 41  1  0  0  0  0
 21 42  1  0  0  0  0
 21 43  1  0  0  0  0
 21 44  1  0  0  0  0
 22 45  1  0  0  0  0
 22 46  1  0  0  0  0
 22 47  1  0  0  0  0
 23 48  1  0  0  0  0
 23 49  1  0  0  0  0
 23 50  1  0  0  0  0
 24 25  1  0  0  0  0
 24 26  1  0  0  0  0
 25 51  1  0  0  0  0
 25 52  1  0  0  0  0
 25 53  1  0  0  0  0
 26 54  1  0  0  0  0
 26 55  1  0  0  0  0
 26 56  1  0  0  0  0
M  END
> <PUBCHEM_COMPOUND_CID>
58473846

> <PUBCHEM_CONFORMER_RMSD>
1

> <PUBCHEM_CONFORMER_DIVERSEORDER>
1
91
10
127
93
87
184
140
22
155
86
136
57
161
166
82
141
78
153
121
12
167
75
126
119
88
151
27
149
145
130
131
132
124
35
81
74
62
66
50
108
123
160
64
173
159
59
177
187
188
179
137
174
129
80
92
79
143
156
69
125
181
146
115
144
84
186
16
71
36
101
18
30
100
77
38
157
102
175
73
139
138
44
61
90
112
154
97
162
134
47
116
164
106
171
45
83
183
182
105
63
68
85
120
169
117
39
43
33
56
46
15
118
17
176
8
180
110
25
147
70
178
51
28
76
128
34
11
170
53
122
135
133
113
172
41
168
114
32
26
7
49
2
107
142
185
163
54
65
148
55
52
152
31
98
96
19
29
13
89
72
3
67
150
9
109
14
165
24
37
48
95
99
20
21
6
58
42
158
5
104
40
4
60
111
23
103
94

> <PUBCHEM_MMFF94_PARTIAL_CHARGES>
27
1 -0.68
10 0.03
11 0.14
12 0.45
13 0.49
14 0.06
15 0.2
16 -0.29
19 -0.28
2 -0.53
20 -0.29
22 0.14
23 0.14
24 -0.28
25 0.14
26 0.14
3 -0.57
31 0.4
34 0.15
37 0.45
4 -0.57
41 0.15
5 -0.57
6 0.06
7 0.48
8 -0.06
9 0.49

> <PUBCHEM_EFFECTIVE_ROTOR_COUNT>
8.4

> <PUBCHEM_PHARMACOPHORE_FEATURES>
11
1 1 acceptor
1 1 donor
1 18 hydrophobe
1 2 donor
1 21 hydrophobe
1 3 acceptor
1 4 acceptor
1 5 acceptor
3 19 22 23 hydrophobe
3 24 25 26 hydrophobe
5 6 7 8 9 10 rings

> <PUBCHEM_HEAVY_ATOM_COUNT>
26

> <PUBCHEM_ATOM_DEF_STEREO_COUNT>
2

> <PUBCHEM_ATOM_UDEF_STEREO_COUNT>
1

> <PUBCHEM_BOND_DEF_STEREO_COUNT>
0

> <PUBCHEM_BOND_UDEF_STEREO_COUNT>
0

> <PUBCHEM_ISOTOPIC_ATOM_COUNT>
0

> <PUBCHEM_COMPONENT_COUNT>
1

> <PUBCHEM_CACTVS_TAUTO_COUNT>
36

> <PUBCHEM_CONFORMER_ID>
037C3D7600000001

> <PUBCHEM_MMFF94_ENERGY>
42.1438

> <PUBCHEM_FEATURE_SELFOVERLAP>
55.824

> <PUBCHEM_SHAPE_FINGERPRINT>
105312 117 18409453574228825909
10764073 3 13675974627366167474
11488393 25 17612582324688084903
11796584 16 13614244715745967189
12293681 160 17846212190212864000
12788726 201 18044372970456558219
13149001 5 17988920127948739640
13540713 4 17844525716144546232
14251757 5 18192996143711751503
15163728 17 18192168018003172693
15664445 248 16754103956441916797
15775530 1 17699837720479691569
1813 80 17548988105314719202
20602899 9 18272657822337547403
21033650 10 17201945647252933768
21641784 216 17831314061027622119
22393880 68 17845354584476778645
22907989 373 18125737917401181325
23419403 2 13462608923980747387
23559900 14 17835787609296199873
266924 78 17765465078850817545
3057174 1 18340206272199033767
340366 18 18261683588718385854
3472631 163 17240762818803036733
3759504 43 18410572873082235599
4058900 60 18193846937988263969
4409770 3 18339924917523793075
57527585 21 16811259753809576020
58779409 8 18412262873840805975
633830 44 17095528435205816424
7164475 11 18049443935553334734

> <PUBCHEM_SHAPE_MULTIPOLES>
505.72
9.16
5.52
1.72
1.8
9.53
0.03
-9.11
4.58
-6.46
1.83
0.41
-1.12
0.32

> <PUBCHEM_SHAPE_SELFOVERLAP>
1030.711

> <PUBCHEM_SHAPE_VOLUME>
293.4

> <PUBCHEM_COORDINATE_TYPE>
2
5
10

$$$$
