60208888
  -OEChem-03112307312D

136143  0     1  0  0  0  0  0999 V2000
    8.5991   -2.6210    0.0000 O   0  0  0  0  0  0  0  0  0  0  0  0
   11.8999    4.2290    0.0000 O   0  0  0  0  0  0  0  0  0  0  0  0
   10.2098    4.6079    0.0000 O   0  0  0  0  0  0  0  0  0  0  0  0
    6.8671   -2.6210    0.0000 O   0  0  0  0  0  0  0  0  0  0  0  0
    8.5991   -4.6210    0.0000 O   0  0  0  0  0  0  0  0  0  0  0  0
    6.8671   -5.6210    0.0000 O   0  0  0  0  0  0  0  0  0  0  0  0
   11.3830    5.8821    0.0000 O   0  0  0  0  0  0  0  0  0  0  0  0
    5.1350   -4.6210    0.0000 O   0  0  0  0  0  0  0  0  0  0  0  0
   13.8088    4.8259    0.0000 O   0  0  0  0  0  0  0  0  0  0  0  0
    9.4651   -3.1210    0.0000 O   0  0  0  0  0  0  0  0  0  0  0  0
    5.1350   -1.6210    0.0000 O   0  0  0  0  0  0  0  0  0  0  0  0
   14.2463    6.7774    0.0000 O   0  0  0  0  0  0  0  0  0  0  0  0
    5.1350   -5.6210    0.0000 O   0  0  0  0  0  0  0  0  0  0  0  0
   12.7749    8.1321    0.0000 O   0  0  0  0  0  0  0  0  0  0  0  0
   10.3312   -5.6210    0.0000 O   0  0  0  0  0  0  0  0  0  0  0  0
    6.8671   -7.6210    0.0000 O   0  0  0  0  0  0  0  0  0  0  0  0
   11.0848    8.5110    0.0000 O   0  0  0  0  0  0  0  0  0  0  0  0
   12.0632   -4.6210    0.0000 O   0  0  0  0  0  0  0  0  0  0  0  0
   12.0632   -2.6210    0.0000 O   0  0  0  0  0  0  0  0  0  0  0  0
    5.1350   -8.6210    0.0000 O   0  0  0  0  0  0  0  0  0  0  0  0
    3.4030   -7.6210    0.0000 O   0  0  0  0  0  0  0  0  0  0  0  0
    2.5369   -6.1210    0.0000 O   0  0  0  0  0  0  0  0  0  0  0  0
    8.5991    0.6260    0.0000 C   0  0  2  0  0  0  0  0  0  0  0  0
    9.5740    0.4035    0.0000 C   0  0  2  0  0  0  0  0  0  0  0  0
   10.2942    1.1561    0.0000 C   0  0  1  0  0  0  0  0  0  0  0  0
    9.9949    2.1538    0.0000 C   0  0  2  0  0  0  0  0  0  0  0  0
    8.9651   -0.4975    0.0000 C   0  0  0  0  0  0  0  0  0  0  0  0
    8.5991   -1.6210    0.0000 C   0  0  2  0  0  0  0  0  0  0  0  0
    8.2768    1.6165    0.0000 C   0  0  0  0  0  0  0  0  0  0  0  0
   10.0079   -0.4975    0.0000 C   0  0  0  0  0  0  0  0  0  0  0  0
    7.8173    0.0025    0.0000 C   0  0  0  0  0  0  0  0  0  0  0  0
    8.9794    2.3855    0.0000 C   0  0  0  0  0  0  0  0  0  0  0  0
   10.7267    2.9548    0.0000 C   0  0  2  0  0  0  0  0  0  0  0  0
   11.3461    0.8902    0.0000 C   0  0  0  0  0  0  0  0  0  0  0  0
    9.5740   -1.3984    0.0000 C   0  0  0  0  0  0  0  0  0  0  0  0
    7.8173   -0.9975    0.0000 C   0  0  0  0  0  0  0  0  0  0  0  0
   10.8919    0.3543    0.0000 C   0  0  0  0  0  0  0  0  0  0  0  0
   11.7845    2.7133    0.0000 C   0  0  0  0  0  0  0  0  0  0  0  0
   12.0963    1.6741    0.0000 C   0  0  0  0  0  0  0  0  0  0  0  0
    9.9910    3.6321    0.0000 C   0  0  0  0  0  0  0  0  0  0  0  0
   10.9455    3.9306    0.0000 C   0  0  0  0  0  0  0  0  0  0  0  0
    6.9163   -1.4313    0.0000 C   0  0  0  0  0  0  0  0  0  0  0  0
    7.7331   -3.1210    0.0000 C   0  0  2  0  0  0  0  0  0  0  0  0
    7.7331   -4.1210    0.0000 C   0  0  1  0  0  0  0  0  0  0  0  0
    6.8671   -4.6210    0.0000 C   0  0  2  0  0  0  0  0  0  0  0  0
   12.1187    5.2048    0.0000 C   0  0  2  0  0  0  0  0  0  0  0  0
    6.0010   -3.1210    0.0000 C   0  0  1  0  0  0  0  0  0  0  0  0
    6.0010   -4.1210    0.0000 C   0  0  1  0  0  0  0  0  0  0  0  0
   13.0731    5.5032    0.0000 C   0  0  1  0  0  0  0  0  0  0  0  0
    5.1350   -2.6210    0.0000 C   0  0  0  0  0  0  0  0  0  0  0  0
    9.4651   -4.1210    0.0000 C   0  0  2  0  0  0  0  0  0  0  0  0
   13.2918    6.4790    0.0000 C   0  0  2  0  0  0  0  0  0  0  0  0
   11.6018    6.8579    0.0000 C   0  0  1  0  0  0  0  0  0  0  0  0
   12.5562    7.1563    0.0000 C   0  0  1  0  0  0  0  0  0  0  0  0
    6.0010   -6.1210    0.0000 C   0  0  2  0  0  0  0  0  0  0  0  0
   10.3312   -4.6210    0.0000 C   0  0  1  0  0  0  0  0  0  0  0  0
    6.0010   -7.1210    0.0000 C   0  0  1  0  0  0  0  0  0  0  0  0
   10.8661    7.5352    0.0000 C   0  0  0  0  0  0  0  0  0  0  0  0
   11.1972   -4.1210    0.0000 C   0  0  1  0  0  0  0  0  0  0  0  0
   10.3312   -2.6210    0.0000 C   0  0  2  0  0  0  0  0  0  0  0  0
   11.1972   -3.1210    0.0000 C   0  0  2  0  0  0  0  0  0  0  0  0
    5.1350   -7.6210    0.0000 C   0  0  2  0  0  0  0  0  0  0  0  0
    4.2690   -6.1210    0.0000 C   0  0  1  0  0  0  0  0  0  0  0  0
    4.2690   -7.1210    0.0000 C   0  0  1  0  0  0  0  0  0  0  0  0
   10.3312   -1.6210    0.0000 C   0  0  0  0  0  0  0  0  0  0  0  0
    3.4030   -5.6210    0.0000 C   0  0  0  0  0  0  0  0  0  0  0  0
   10.4027    0.2144    0.0000 H   0  0  0  0  0  0  0  0  0  0  0  0
    9.7412    2.9650    0.0000 H   0  0  0  0  0  0  0  0  0  0  0  0
    9.4666   -0.8620    0.0000 H   0  0  0  0  0  0  0  0  0  0  0  0
    9.4666   -0.1329    0.0000 H   0  0  0  0  0  0  0  0  0  0  0  0
    7.8974    2.1069    0.0000 H   0  0  0  0  0  0  0  0  0  0  0  0
    7.7287    1.3266    0.0000 H   0  0  0  0  0  0  0  0  0  0  0  0
   10.4927   -0.8840    0.0000 H   0  0  0  0  0  0  0  0  0  0  0  0
   10.4927   -0.1109    0.0000 H   0  0  0  0  0  0  0  0  0  0  0  0
    7.5483    0.5611    0.0000 H   0  0  0  0  0  0  0  0  0  0  0  0
    7.2128   -0.1354    0.0000 H   0  0  0  0  0  0  0  0  0  0  0  0
    9.2187    2.9575    0.0000 H   0  0  0  0  0  0  0  0  0  0  0  0
    8.4568    2.7192    0.0000 H   0  0  0  0  0  0  0  0  0  0  0  0
   11.0936    0.3240    0.0000 H   0  0  0  0  0  0  0  0  0  0  0  0
   11.8608    0.5445    0.0000 H   0  0  0  0  0  0  0  0  0  0  0  0
    9.5740   -2.0184    0.0000 H   0  0  0  0  0  0  0  0  0  0  0  0
   10.1785   -1.5364    0.0000 H   0  0  0  0  0  0  0  0  0  0  0  0
   10.3948   -0.0162    0.0000 H   0  0  0  0  0  0  0  0  0  0  0  0
   11.2624   -0.1428    0.0000 H   0  0  0  0  0  0  0  0  0  0  0  0
   11.3890    0.7248    0.0000 H   0  0  0  0  0  0  0  0  0  0  0  0
   12.4001    2.7873    0.0000 H   0  0  0  0  0  0  0  0  0  0  0  0
   11.8170    3.3325    0.0000 H   0  0  0  0  0  0  0  0  0  0  0  0
   12.4643    1.1751    0.0000 H   0  0  0  0  0  0  0  0  0  0  0  0
   12.6509    1.9513    0.0000 H   0  0  0  0  0  0  0  0  0  0  0  0
   10.4110    4.0882    0.0000 H   0  0  0  0  0  0  0  0  0  0  0  0
    9.5349    4.0521    0.0000 H   0  0  0  0  0  0  0  0  0  0  0  0
    9.5711    3.1760    0.0000 H   0  0  0  0  0  0  0  0  0  0  0  0
    6.4040   -1.0821    0.0000 H   0  0  0  0  0  0  0  0  0  0  0  0
    6.8700   -2.0496    0.0000 H   0  0  0  0  0  0  0  0  0  0  0  0
    7.7331   -2.5010    0.0000 H   0  0  0  0  0  0  0  0  0  0  0  0
    7.7331   -4.7410    0.0000 H   0  0  0  0  0  0  0  0  0  0  0  0
    6.3301   -4.9310    0.0000 H   0  0  0  0  0  0  0  0  0  0  0  0
   12.5748    4.7848    0.0000 H   0  0  0  0  0  0  0  0  0  0  0  0
    6.0010   -2.5010    0.0000 H   0  0  0  0  0  0  0  0  0  0  0  0
    5.4641   -3.8110    0.0000 H   0  0  0  0  0  0  0  0  0  0  0  0
   13.6648    5.6882    0.0000 H   0  0  0  0  0  0  0  0  0  0  0  0
    4.5244   -2.5133    0.0000 H   0  0  0  0  0  0  0  0  0  0  0  0
    4.9230   -3.2036    0.0000 H   0  0  0  0  0  0  0  0  0  0  0  0
    9.4651   -4.7410    0.0000 H   0  0  0  0  0  0  0  0  0  0  0  0
   13.4275    7.0840    0.0000 H   0  0  0  0  0  0  0  0  0  0  0  0
   11.0100    6.6728    0.0000 H   0  0  0  0  0  0  0  0  0  0  0  0
    4.5981   -4.3110    0.0000 H   0  0  0  0  0  0  0  0  0  0  0  0
   12.1001    7.5763    0.0000 H   0  0  0  0  0  0  0  0  0  0  0  0
    6.5380   -6.4310    0.0000 H   0  0  0  0  0  0  0  0  0  0  0  0
   10.8681   -4.9310    0.0000 H   0  0  0  0  0  0  0  0  0  0  0  0
   14.4005    5.0109    0.0000 H   0  0  0  0  0  0  0  0  0  0  0  0
    4.5981   -1.3110    0.0000 H   0  0  0  0  0  0  0  0  0  0  0  0
    6.0010   -7.7410    0.0000 H   0  0  0  0  0  0  0  0  0  0  0  0
   10.2938    7.7738    0.0000 H   0  0  0  0  0  0  0  0  0  0  0  0
   10.5317    7.0131    0.0000 H   0  0  0  0  0  0  0  0  0  0  0  0
   11.1972   -4.7410    0.0000 H   0  0  0  0  0  0  0  0  0  0  0  0
    9.7942   -2.3110    0.0000 H   0  0  0  0  0  0  0  0  0  0  0  0
   14.3819    7.3824    0.0000 H   0  0  0  0  0  0  0  0  0  0  0  0
   11.7341   -3.4310    0.0000 H   0  0  0  0  0  0  0  0  0  0  0  0
    4.5981   -7.9310    0.0000 H   0  0  0  0  0  0  0  0  0  0  0  0
   13.3667    8.3171    0.0000 H   0  0  0  0  0  0  0  0  0  0  0  0
    4.2690   -5.5010    0.0000 H   0  0  0  0  0  0  0  0  0  0  0  0
    4.2690   -7.7410    0.0000 H   0  0  0  0  0  0  0  0  0  0  0  0
   10.8681   -5.9310    0.0000 H   0  0  0  0  0  0  0  0  0  0  0  0
   10.9512   -1.6210    0.0000 H   0  0  0  0  0  0  0  0  0  0  0  0
   10.3312   -1.0010    0.0000 H   0  0  0  0  0  0  0  0  0  0  0  0
    9.7112   -1.6210    0.0000 H   0  0  0  0  0  0  0  0  0  0  0  0
    6.8671   -8.2410    0.0000 H   0  0  0  0  0  0  0  0  0  0  0  0
   12.6002   -4.3110    0.0000 H   0  0  0  0  0  0  0  0  0  0  0  0
   10.6287    8.9310    0.0000 H   0  0  0  0  0  0  0  0  0  0  0  0
    3.8015   -5.1460    0.0000 H   0  0  0  0  0  0  0  0  0  0  0  0
    3.0044   -5.1460    0.0000 H   0  0  0  0  0  0  0  0  0  0  0  0
   12.0632   -2.0010    0.0000 H   0  0  0  0  0  0  0  0  0  0  0  0
    4.5981   -8.9310    0.0000 H   0  0  0  0  0  0  0  0  0  0  0  0
    3.4030   -8.2410    0.0000 H   0  0  0  0  0  0  0  0  0  0  0  0
    2.0000   -5.8110    0.0000 H   0  0  0  0  0  0  0  0  0  0  0  0
 28  1  1  6  0  0  0
 43  1  1  1  0  0  0
  2 41  1  0  0  0  0
 46  2  1  6  0  0  0
  3 41  2  0  0  0  0
  4 43  1  0  0  0  0
  4 47  1  0  0  0  0
 44  5  1  6  0  0  0
 51  5  1  6  0  0  0
 45  6  1  1  0  0  0
 55  6  1  1  0  0  0
  7 46  1  0  0  0  0
  7 53  1  0  0  0  0
 48  8  1  6  0  0  0
  8107  1  0  0  0  0
 49  9  1  1  0  0  0
  9111  1  0  0  0  0
 10 51  1  0  0  0  0
 10 60  1  0  0  0  0
 11 50  1  0  0  0  0
 11112  1  0  0  0  0
 52 12  1  6  0  0  0
 12118  1  0  0  0  0
 13 55  1  0  0  0  0
 13 63  1  0  0  0  0
 54 14  1  1  0  0  0
 14121  1  0  0  0  0
 56 15  1  1  0  0  0
 15124  1  0  0  0  0
 57 16  1  6  0  0  0
 16128  1  0  0  0  0
 17 58  1  0  0  0  0
 17130  1  0  0  0  0
 59 18  1  1  0  0  0
 18129  1  0  0  0  0
 61 19  1  6  0  0  0
 19133  1  0  0  0  0
 62 20  1  1  0  0  0
 20134  1  0  0  0  0
 64 21  1  6  0  0  0
 21135  1  0  0  0  0
 22 66  1  0  0  0  0
 22136  1  0  0  0  0
 23 24  1  0  0  0  0
 23 27  1  0  0  0  0
 23 29  1  6  0  0  0
 23 31  1  0  0  0  0
 24 25  1  0  0  0  0
 24 30  1  0  0  0  0
 24 67  1  1  0  0  0
 25 26  1  0  0  0  0
 25 34  1  0  0  0  0
 25 37  1  6  0  0  0
 26 32  1  0  0  0  0
 26 33  1  0  0  0  0
 26 68  1  1  0  0  0
 27 28  1  0  0  0  0
 27 69  1  0  0  0  0
 27 70  1  0  0  0  0
 28 35  1  0  0  0  0
 28 36  1  0  0  0  0
 29 32  1  0  0  0  0
 29 71  1  0  0  0  0
 29 72  1  0  0  0  0
 30 35  1  0  0  0  0
 30 73  1  0  0  0  0
 30 74  1  0  0  0  0
 31 36  1  0  0  0  0
 31 75  1  0  0  0  0
 31 76  1  0  0  0  0
 32 77  1  0  0  0  0
 32 78  1  0  0  0  0
 33 38  1  0  0  0  0
 33 40  1  1  0  0  0
 33 41  1  0  0  0  0
 34 39  1  0  0  0  0
 34 79  1  0  0  0  0
 34 80  1  0  0  0  0
 35 81  1  0  0  0  0
 35 82  1  0  0  0  0
 36 42  2  0  0  0  0
 37 83  1  0  0  0  0
 37 84  1  0  0  0  0
 37 85  1  0  0  0  0
 38 39  1  0  0  0  0
 38 86  1  0  0  0  0
 38 87  1  0  0  0  0
 39 88  1  0  0  0  0
 39 89  1  0  0  0  0
 40 90  1  0  0  0  0
 40 91  1  0  0  0  0
 40 92  1  0  0  0  0
 42 93  1  0  0  0  0
 42 94  1  0  0  0  0
 43 44  1  0  0  0  0
 43 95  1  0  0  0  0
 44 45  1  0  0  0  0
 44 96  1  0  0  0  0
 45 48  1  0  0  0  0
 45 97  1  0  0  0  0
 46 49  1  0  0  0  0
 46 98  1  0  0  0  0
 47 48  1  0  0  0  0
 47 50  1  1  0  0  0
 47 99  1  0  0  0  0
 48100  1  0  0  0  0
 49 52  1  0  0  0  0
 49101  1  0  0  0  0
 50102  1  0  0  0  0
 50103  1  0  0  0  0
 51 56  1  0  0  0  0
 51104  1  0  0  0  0
 52 54  1  0  0  0  0
 52105  1  0  0  0  0
 53 54  1  0  0  0  0
 53 58  1  6  0  0  0
 53106  1  0  0  0  0
 54108  1  0  0  0  0
 55 57  1  0  0  0  0
 55109  1  0  0  0  0
 56 59  1  0  0  0  0
 56110  1  0  0  0  0
 57 62  1  0  0  0  0
 57113  1  0  0  0  0
 58114  1  0  0  0  0
 58115  1  0  0  0  0
 59 61  1  0  0  0  0
 59116  1  0  0  0  0
 60 61  1  0  0  0  0
 60 65  1  1  0  0  0
 60117  1  0  0  0  0
 61119  1  0  0  0  0
 62 64  1  0  0  0  0
 62120  1  0  0  0  0
 63 64  1  0  0  0  0
 63 66  1  1  0  0  0
 63122  1  0  0  0  0
 64123  1  0  0  0  0
 65125  1  0  0  0  0
 65126  1  0  0  0  0
 65127  1  0  0  0  0
 66131  1  0  0  0  0
 66132  1  0  0  0  0
M  END
> <PUBCHEM_COMPOUND_CID>
60208888

> <PUBCHEM_COMPOUND_CANONICALIZED>
1

> <PUBCHEM_CACTVS_COMPLEXITY>
1740

> <PUBCHEM_CACTVS_HBOND_ACCEPTOR>
22

> <PUBCHEM_CACTVS_HBOND_DONOR>
13

> <PUBCHEM_CACTVS_ROTATABLE_BOND>
12

> <PUBCHEM_CACTVS_SUBSKEYS>
AAADcfB8PgAAAAAAAAAAAAAAAAAAAYAAAAA0aNEiBgAAAADAAAAAGgAACAAAD1SwgAMCCAAABgCIAgDSCAAAAAAgAAAAAAEAAAgRFBIAIQAiQAAFgAAHIAHI6PyPgAAAAAAAAADAAAYAACAAAYAAAAAAAA==

> <PUBCHEM_IUPAC_OPENEYE_NAME>
[(2S,3R,4S,5S,6R)-3,4,5-trihydroxy-6-(hydroxymethyl)tetrahydropyran-2-yl] (1R,4S,5R,9S,10R,13S)-13-[(2S,3R,4S,5R,6R)-5-hydroxy-6-(hydroxymethyl)-4-[(2S,3R,4S,5S,6R)-3,4,5-trihydroxy-6-(hydroxymethyl)tetrahydropyran-2-yl]oxy-3-[(2S,3R,4R,5R,6S)-3,4,5-trihydroxy-6-methyl-tetrahydropyran-2-yl]oxy-tetrahydropyran-2-yl]oxy-5,9-dimethyl-14-methylene-tetracyclo[11.2.1.01,10.04,9]hexadecane-5-carboxylate

> <PUBCHEM_IUPAC_CAS_NAME>
(1R,4S,5R,9S,10R,13S)-13-[[(2S,3R,4S,5R,6R)-5-hydroxy-6-(hydroxymethyl)-4-[[(2S,3R,4S,5S,6R)-3,4,5-trihydroxy-6-(hydroxymethyl)-2-oxanyl]oxy]-3-[[(2S,3R,4R,5R,6S)-3,4,5-trihydroxy-6-methyl-2-oxanyl]oxy]-2-oxanyl]oxy]-5,9-dimethyl-14-methylene-5-tetracyclo[11.2.1.01,10.04,9]hexadecanecarboxylic acid [(2S,3R,4S,5S,6R)-3,4,5-trihydroxy-6-(hydroxymethyl)-2-oxanyl] ester

> <PUBCHEM_IUPAC_NAME_MARKUP>
[(2<I>S</I>,3<I>R</I>,4<I>S</I>,5<I>S</I>,6<I>R</I>)-3,4,5-trihydroxy-6-(hydroxymethyl)oxan-2-yl] (1<I>R</I>,4<I>S</I>,5<I>R</I>,9<I>S</I>,10<I>R</I>,13<I>S</I>)-13-[(2<I>S</I>,3<I>R</I>,4<I>S</I>,5<I>R</I>,6<I>R</I>)-5-hydroxy-6-(hydroxymethyl)-4-[(2<I>S</I>,3<I>R</I>,4<I>S</I>,5<I>S</I>,6<I>R</I>)-3,4,5-trihydroxy-6-(hydroxymethyl)oxan-2-yl]oxy-3-[(2<I>S</I>,3<I>R</I>,4<I>R</I>,5<I>R</I>,6<I>S</I>)-3,4,5-trihydroxy-6-methyloxan-2-yl]oxyoxan-2-yl]oxy-5,9-dimethyl-14-methylidenetetracyclo[11.2.1.0<SUP>1,10</SUP>.0<SUP>4,9</SUP>]hexadecane-5-carboxylate

> <PUBCHEM_IUPAC_NAME>
[(2S,3R,4S,5S,6R)-3,4,5-trihydroxy-6-(hydroxymethyl)oxan-2-yl] (1R,4S,5R,9S,10R,13S)-13-[(2S,3R,4S,5R,6R)-5-hydroxy-6-(hydroxymethyl)-4-[(2S,3R,4S,5S,6R)-3,4,5-trihydroxy-6-(hydroxymethyl)oxan-2-yl]oxy-3-[(2S,3R,4R,5R,6S)-3,4,5-trihydroxy-6-methyloxan-2-yl]oxyoxan-2-yl]oxy-5,9-dimethyl-14-methylidenetetracyclo[11.2.1.01,10.04,9]hexadecane-5-carboxylate

> <PUBCHEM_IUPAC_SYSTEMATIC_NAME>
[(2S,3R,4S,5S,6R)-6-(hydroxymethyl)-3,4,5-tris(oxidanyl)oxan-2-yl] (1R,4S,5R,9S,10R,13S)-13-[(2S,3R,4S,5R,6R)-6-(hydroxymethyl)-4-[(2S,3R,4S,5S,6R)-6-(hydroxymethyl)-3,4,5-tris(oxidanyl)oxan-2-yl]oxy-3-[(2S,3R,4R,5R,6S)-6-methyl-3,4,5-tris(oxidanyl)oxan-2-yl]oxy-5-oxidanyl-oxan-2-yl]oxy-5,9-dimethyl-14-methylidene-tetracyclo[11.2.1.01,10.04,9]hexadecane-5-carboxylate

> <PUBCHEM_IUPAC_TRADITIONAL_NAME>
(1R,4S,5R,9S,10R,13S)-13-[(2S,3R,4S,5R,6R)-5-hydroxy-6-methylol-4-[(2S,3R,4S,5S,6R)-3,4,5-trihydroxy-6-methylol-tetrahydropyran-2-yl]oxy-3-[(2S,3R,4R,5R,6S)-3,4,5-trihydroxy-6-methyl-tetrahydropyran-2-yl]oxy-tetrahydropyran-2-yl]oxy-5,9-dimethyl-14-methylene-tetracyclo[11.2.1.01,10.04,9]hexadecane-5-carboxylic acid [(2S,3R,4S,5S,6R)-3,4,5-trihydroxy-6-methylol-tetrahydropyran-2-yl] ester

> <PUBCHEM_IUPAC_INCHI>
InChI=1S/C44H70O22/c1-17-12-43-10-6-22-41(3,8-5-9-42(22,4)40(58)65-38-33(57)30(54)26(50)20(14-46)61-38)23(43)7-11-44(17,16-43)66-39-35(64-36-31(55)28(52)24(48)18(2)59-36)34(27(51)21(15-47)62-39)63-37-32(56)29(53)25(49)19(13-45)60-37/h18-39,45-57H,1,5-16H2,2-4H3/t18-,19+,20+,21+,22-,23-,24-,25+,26+,27+,28+,29-,30-,31+,32+,33+,34-,35+,36-,37-,38-,39-,41+,42+,43+,44-/m0/s1

> <PUBCHEM_IUPAC_INCHIKEY>
QSRAJVGDWKFOGU-WBXIDTKBSA-N

> <PUBCHEM_XLOGP3_AA>
-2.3

> <PUBCHEM_EXACT_MASS>
950.43587386

> <PUBCHEM_MOLECULAR_FORMULA>
C44H70O22

> <PUBCHEM_MOLECULAR_WEIGHT>
951.0

> <PUBCHEM_OPENEYE_CAN_SMILES>
CC1C(C(C(C(O1)OC2C(C(C(OC2OC34CCC5C6(CCCC(C6CCC5(C3)CC4=C)(C)C(=O)OC7C(C(C(C(O7)CO)O)O)O)C)CO)O)OC8C(C(C(C(O8)CO)O)O)O)O)O)O

> <PUBCHEM_OPENEYE_ISO_SMILES>
C[C@H]1[C@@H]([C@H]([C@H]([C@@H](O1)O[C@@H]2[C@H]([C@@H]([C@H](O[C@H]2O[C@@]34CC[C@H]5[C@@]6(CCC[C@@]([C@H]6CC[C@]5(C3)CC4=C)(C)C(=O)O[C@H]7[C@@H]([C@H]([C@@H]([C@H](O7)CO)O)O)O)C)CO)O)O[C@H]8[C@@H]([C@H]([C@@H]([C@H](O8)CO)O)O)O)O)O)O

> <PUBCHEM_CACTVS_TPSA>
354

> <PUBCHEM_MONOISOTOPIC_WEIGHT>
950.43587386

> <PUBCHEM_TOTAL_CHARGE>
0

> <PUBCHEM_HEAVY_ATOM_COUNT>
66

> <PUBCHEM_ATOM_DEF_STEREO_COUNT>
26

> <PUBCHEM_ATOM_UDEF_STEREO_COUNT>
0

> <PUBCHEM_BOND_DEF_STEREO_COUNT>
0

> <PUBCHEM_BOND_UDEF_STEREO_COUNT>
0

> <PUBCHEM_ISOTOPIC_ATOM_COUNT>
0

> <PUBCHEM_COMPONENT_COUNT>
1

> <PUBCHEM_CACTVS_TAUTO_COUNT>
1

> <PUBCHEM_COORDINATE_TYPE>
1
5
255

> <PUBCHEM_BONDANNOTATIONS>
28  1  6
43  1  5
52  12  6
54  14  5
56  15  5
57  16  6
59  18  5
61  19  6
46  2  6
62  20  5
64  21  6
23  29  6
24  67  5
25  37  6
26  68  5
33  40  5
47  50  5
44  5  6
51  5  6
53  58  6
45  6  5
55  6  5
60  65  5
63  66  5
48  8  6
49  9  5

$$$$
