67117586
  -OEChem-03102309103D

 40 42  0     1  0  0  0  0  0999 V2000
   -3.1795   -1.0432   -1.3072 O   0  0  0  0  0  0  0  0  0  0  0  0
   -2.5902    1.5211    0.0223 O   0  0  0  0  0  0  0  0  0  0  0  0
    1.0963   -1.4149    0.0176 N   0  0  0  0  0  0  0  0  0  0  0  0
    0.2722    1.5519    0.0174 N   0  0  0  0  0  0  0  0  0  0  0  0
   -0.1528   -0.8808    0.0208 C   0  0  0  0  0  0  0  0  0  0  0  0
   -0.4765    0.4183    0.0205 C   0  0  0  0  0  0  0  0  0  0  0  0
   -2.5572   -0.9058   -0.0409 C   0  0  1  0  0  0  0  0  0  0  0  0
   -1.3316   -1.8192    0.0408 C   0  0  0  0  0  0  0  0  0  0  0  0
    2.3262   -0.6305    0.0134 C   0  0  0  0  0  0  0  0  0  0  0  0
    1.3785   -2.8462    0.0195 C   0  0  0  0  0  0  0  0  0  0  0  0
   -1.9537    0.4771    0.0153 C   0  0  0  0  0  0  0  0  0  0  0  0
    0.7275    2.2396    1.2207 C   0  0  0  0  0  0  0  0  0  0  0  0
    0.7223    2.2372   -1.1892 C   0  0  0  0  0  0  0  0  0  0  0  0
    3.4157   -1.6528   -0.2958 C   0  0  0  0  0  0  0  0  0  0  0  0
    2.8708   -2.9282    0.3256 C   0  0  0  0  0  0  0  0  0  0  0  0
    1.2408    3.5815    0.7074 C   0  0  0  0  0  0  0  0  0  0  0  0
    1.7538    3.2402   -0.6817 C   0  0  0  0  0  0  0  0  0  0  0  0
   -3.5624   -1.1453    1.0735 C   0  0  0  0  0  0  0  0  0  0  0  0
   -1.2943   -2.5173   -0.8033 H   0  0  0  0  0  0  0  0  0  0  0  0
   -1.3287   -2.3951    0.9738 H   0  0  0  0  0  0  0  0  0  0  0  0
    2.5015   -0.1928    1.0007 H   0  0  0  0  0  0  0  0  0  0  0  0
    2.3541    0.1420   -0.7545 H   0  0  0  0  0  0  0  0  0  0  0  0
    1.1654   -3.2709   -0.9682 H   0  0  0  0  0  0  0  0  0  0  0  0
    0.8079   -3.3934    0.7769 H   0  0  0  0  0  0  0  0  0  0  0  0
    1.5327    1.6812    1.7069 H   0  0  0  0  0  0  0  0  0  0  0  0
   -0.0836    2.3820    1.9427 H   0  0  0  0  0  0  0  0  0  0  0  0
   -0.1247    2.7626   -1.6460 H   0  0  0  0  0  0  0  0  0  0  0  0
    1.1482    1.5608   -1.9364 H   0  0  0  0  0  0  0  0  0  0  0  0
    3.5174   -1.7807   -1.3804 H   0  0  0  0  0  0  0  0  0  0  0  0
    4.3897   -1.3637    0.1085 H   0  0  0  0  0  0  0  0  0  0  0  0
    3.0346   -2.9147    1.4100 H   0  0  0  0  0  0  0  0  0  0  0  0
    3.3333   -3.8321   -0.0804 H   0  0  0  0  0  0  0  0  0  0  0  0
    2.0114    4.0107    1.3535 H   0  0  0  0  0  0  0  0  0  0  0  0
    0.4138    4.2983    0.6349 H   0  0  0  0  0  0  0  0  0  0  0  0
    1.8417    4.1158   -1.3307 H   0  0  0  0  0  0  0  0  0  0  0  0
    2.7391    2.7643   -0.6097 H   0  0  0  0  0  0  0  0  0  0  0  0
   -3.1213   -0.9741    2.0611 H   0  0  0  0  0  0  0  0  0  0  0  0
   -4.4246   -0.4768    0.9690 H   0  0  0  0  0  0  0  0  0  0  0  0
   -3.9508   -2.1689    1.0345 H   0  0  0  0  0  0  0  0  0  0  0  0
   -3.4844   -1.9628   -1.3918 H   0  0  0  0  0  0  0  0  0  0  0  0
  1  7  1  0  0  0  0
  1 40  1  0  0  0  0
  2 11  2  0  0  0  0
  3  5  1  0  0  0  0
  3  9  1  0  0  0  0
  3 10  1  0  0  0  0
  4  6  1  0  0  0  0
  4 12  1  0  0  0  0
  4 13  1  0  0  0  0
  5  6  2  0  0  0  0
  5  8  1  0  0  0  0
  6 11  1  0  0  0  0
  7  8  1  0  0  0  0
  7 11  1  0  0  0  0
  7 18  1  0  0  0  0
  8 19  1  0  0  0  0
  8 20  1  0  0  0  0
  9 14  1  0  0  0  0
  9 21  1  0  0  0  0
  9 22  1  0  0  0  0
 10 15  1  0  0  0  0
 10 23  1  0  0  0  0
 10 24  1  0  0  0  0
 12 16  1  0  0  0  0
 12 25  1  0  0  0  0
 12 26  1  0  0  0  0
 13 17  1  0  0  0  0
 13 27  1  0  0  0  0
 13 28  1  0  0  0  0
 14 15  1  0  0  0  0
 14 29  1  0  0  0  0
 14 30  1  0  0  0  0
 15 31  1  0  0  0  0
 15 32  1  0  0  0  0
 16 17  1  0  0  0  0
 16 33  1  0  0  0  0
 16 34  1  0  0  0  0
 17 35  1  0  0  0  0
 17 36  1  0  0  0  0
 18 37  1  0  0  0  0
 18 38  1  0  0  0  0
 18 39  1  0  0  0  0
M  END
> <PUBCHEM_COMPOUND_CID>
67117586

> <PUBCHEM_CONFORMER_RMSD>
0.6

> <PUBCHEM_CONFORMER_DIVERSEORDER>
1
2
6
4
3
5

> <PUBCHEM_MMFF94_PARTIAL_CHARGES>
14
1 -0.68
10 0.37
11 0.49
12 0.37
13 0.37
2 -0.57
3 -0.84
4 -0.84
40 0.4
5 -0.04
6 0.11
7 0.34
8 0.14
9 0.37

> <PUBCHEM_EFFECTIVE_ROTOR_COUNT>
4.4

> <PUBCHEM_PHARMACOPHORE_FEATURES>
8
1 1 acceptor
1 1 donor
1 2 acceptor
1 3 cation
1 4 cation
5 3 9 10 14 15 rings
5 4 12 13 16 17 rings
5 5 6 7 8 11 rings

> <PUBCHEM_HEAVY_ATOM_COUNT>
18

> <PUBCHEM_ATOM_DEF_STEREO_COUNT>
0

> <PUBCHEM_ATOM_UDEF_STEREO_COUNT>
1

> <PUBCHEM_BOND_DEF_STEREO_COUNT>
0

> <PUBCHEM_BOND_UDEF_STEREO_COUNT>
0

> <PUBCHEM_ISOTOPIC_ATOM_COUNT>
0

> <PUBCHEM_COMPONENT_COUNT>
1

> <PUBCHEM_CACTVS_TAUTO_COUNT>
3

> <PUBCHEM_CONFORMER_ID>
0400221200000001

> <PUBCHEM_MMFF94_ENERGY>
47.037

> <PUBCHEM_FEATURE_SELFOVERLAP>
40.598

> <PUBCHEM_SHAPE_FINGERPRINT>
10162869 55 17840033936954256985
108231 29 18334868194384991802
10967382 1 18266461086419888006
11680986 33 18410284801178248049
12173636 292 17043446446124812804
12553582 1 18339083679179689934
12788726 201 17688017622525477202
13027679 85 18267863882852836837
13132413 78 18340494361003126669
13140716 1 17977668932804189730
14614273 12 17400642619243833628
14817 1 14115796999305363972
14955137 171 18055102932664746819
15042514 8 17833274125420166019
15309172 13 17688876753776948001
15475509 84 18124910935182721137
16945 1 18338795723091736571
18785283 64 18044952395856592833
19591789 44 17617109439288118938
19868273 325 18266735792407100270
20028762 73 16181877449108605102
20510252 161 17547846357083445554
20645477 70 18190730033193577631
21029758 11 18195518208558032341
21029758 27 18335713701694075439
21041028 32 18340221691110228289
21665056 4 17473265856490946324
23114952 82 18116972538117303789
2334 1 18338797818872363642
23402539 116 17765700339831521975
23419403 2 17319526402650549956
23557571 272 18052823546566406270
2748010 2 18268135483683649834
3071541 158 18335417954551368989
3071541 250 18339376222144236494
3091708 16 9285813847915614434
350125 39 17760656166967447810
352729 6 16752687785422876702
43471831 8 17833831946918683811
458136 41 17975996567228555913
58807428 26 17907578386532399832
6992083 37 18057050099217169155
7364860 26 18340208608243997472
81228 2 17906737994613416786
90316 7 18048590430825157266

> <PUBCHEM_SHAPE_MULTIPOLES>
348.73
4.78
4.46
0.97
2.81
1.51
0.02
-2.4
-0.02
-4.62
-0.31
0.19
0.42
-0.06

> <PUBCHEM_SHAPE_SELFOVERLAP>
739.236

> <PUBCHEM_SHAPE_VOLUME>
200.4

> <PUBCHEM_COORDINATE_TYPE>
2
5
10

$$$$
