67117572
  -OEChem-03112307573D

 39 41  0     1  0  0  0  0  0999 V2000
   -2.9224   -1.1248    0.1349 O   0  0  0  0  0  0  0  0  0  0  0  0
    1.7122   -0.2867    0.0348 N   0  0  0  0  0  0  0  0  0  0  0  0
   -1.0641    1.0505    0.0262 N   0  0  0  0  0  0  0  0  0  0  0  0
    0.4868   -0.8702    0.0920 C   0  0  0  0  0  0  0  0  0  0  0  0
   -0.7032   -0.2578    0.0879 C   0  0  0  0  0  0  0  0  0  0  0  0
    0.4102   -2.3704    0.1561 C   0  0  0  0  0  0  0  0  0  0  0  0
   -1.0783   -2.6872    0.3117 C   0  0  1  0  0  0  0  0  0  0  0  0
    1.9349    1.1530   -0.0431 C   0  0  0  0  0  0  0  0  0  0  0  0
    2.9733   -1.0199    0.0447 C   0  0  0  0  0  0  0  0  0  0  0  0
   -1.2547    1.9065    1.1918 C   0  0  0  0  0  0  0  0  0  0  0  0
   -1.3118    1.7778   -1.2138 C   0  0  0  0  0  0  0  0  0  0  0  0
   -1.7173   -1.3297    0.1673 C   0  0  0  0  0  0  0  0  0  0  0  0
    3.4151    1.2799   -0.3905 C   0  0  0  0  0  0  0  0  0  0  0  0
    4.0264    0.0592    0.2772 C   0  0  0  0  0  0  0  0  0  0  0  0
   -1.9392    3.1489    0.6300 C   0  0  0  0  0  0  0  0  0  0  0  0
   -1.3767    3.2387   -0.7790 C   0  0  0  0  0  0  0  0  0  0  0  0
   -1.5913   -3.6678   -0.7281 C   0  0  0  0  0  0  0  0  0  0  0  0
    0.8322   -2.8213   -0.7496 H   0  0  0  0  0  0  0  0  0  0  0  0
    0.9562   -2.7644    1.0207 H   0  0  0  0  0  0  0  0  0  0  0  0
   -1.2824   -3.0589    1.3227 H   0  0  0  0  0  0  0  0  0  0  0  0
    1.7429    1.6203    0.9273 H   0  0  0  0  0  0  0  0  0  0  0  0
    1.3556    1.6469   -0.8229 H   0  0  0  0  0  0  0  0  0  0  0  0
    3.1300   -1.5083   -0.9238 H   0  0  0  0  0  0  0  0  0  0  0  0
    3.0255   -1.7713    0.8390 H   0  0  0  0  0  0  0  0  0  0  0  0
   -1.8787    1.4278    1.9540 H   0  0  0  0  0  0  0  0  0  0  0  0
   -0.2934    2.1689    1.6430 H   0  0  0  0  0  0  0  0  0  0  0  0
   -0.5386    1.6148   -1.9708 H   0  0  0  0  0  0  0  0  0  0  0  0
   -2.2746    1.4636   -1.6337 H   0  0  0  0  0  0  0  0  0  0  0  0
    3.8495    2.2202   -0.0399 H   0  0  0  0  0  0  0  0  0  0  0  0
    3.5551    1.2199   -1.4767 H   0  0  0  0  0  0  0  0  0  0  0  0
    5.0017   -0.2103   -0.1374 H   0  0  0  0  0  0  0  0  0  0  0  0
    4.1476    0.2428    1.3517 H   0  0  0  0  0  0  0  0  0  0  0  0
   -1.7404    4.0434    1.2266 H   0  0  0  0  0  0  0  0  0  0  0  0
   -3.0244    2.9956    0.5902 H   0  0  0  0  0  0  0  0  0  0  0  0
   -1.9930    3.8477   -1.4460 H   0  0  0  0  0  0  0  0  0  0  0  0
   -0.3686    3.6695   -0.7522 H   0  0  0  0  0  0  0  0  0  0  0  0
   -1.0649   -4.6247   -0.6537 H   0  0  0  0  0  0  0  0  0  0  0  0
   -2.6612   -3.8560   -0.5881 H   0  0  0  0  0  0  0  0  0  0  0  0
   -1.4591   -3.2800   -1.7443 H   0  0  0  0  0  0  0  0  0  0  0  0
  1 12  2  0  0  0  0
  2  4  1  0  0  0  0
  2  8  1  0  0  0  0
  2  9  1  0  0  0  0
  3  5  1  0  0  0  0
  3 10  1  0  0  0  0
  3 11  1  0  0  0  0
  4  5  2  0  0  0  0
  4  6  1  0  0  0  0
  5 12  1  0  0  0  0
  6  7  1  0  0  0  0
  6 18  1  0  0  0  0
  6 19  1  0  0  0  0
  7 12  1  0  0  0  0
  7 17  1  0  0  0  0
  7 20  1  0  0  0  0
  8 13  1  0  0  0  0
  8 21  1  0  0  0  0
  8 22  1  0  0  0  0
  9 14  1  0  0  0  0
  9 23  1  0  0  0  0
  9 24  1  0  0  0  0
 10 15  1  0  0  0  0
 10 25  1  0  0  0  0
 10 26  1  0  0  0  0
 11 16  1  0  0  0  0
 11 27  1  0  0  0  0
 11 28  1  0  0  0  0
 13 14  1  0  0  0  0
 13 29  1  0  0  0  0
 13 30  1  0  0  0  0
 14 31  1  0  0  0  0
 14 32  1  0  0  0  0
 15 16  1  0  0  0  0
 15 33  1  0  0  0  0
 15 34  1  0  0  0  0
 16 35  1  0  0  0  0
 16 36  1  0  0  0  0
 17 37  1  0  0  0  0
 17 38  1  0  0  0  0
 17 39  1  0  0  0  0
M  END
> <PUBCHEM_COMPOUND_CID>
67117572

> <PUBCHEM_CONFORMER_RMSD>
0.6

> <PUBCHEM_CONFORMER_DIVERSEORDER>
1
2
3

> <PUBCHEM_MMFF94_PARTIAL_CHARGES>
12
1 -0.57
10 0.37
11 0.37
12 0.49
2 -0.84
3 -0.84
4 -0.04
5 0.11
6 0.14
7 0.06
8 0.37
9 0.37

> <PUBCHEM_EFFECTIVE_ROTOR_COUNT>
4.4

> <PUBCHEM_PHARMACOPHORE_FEATURES>
6
1 1 acceptor
1 2 cation
1 3 cation
5 2 8 9 13 14 rings
5 3 10 11 15 16 rings
5 4 5 6 7 12 rings

> <PUBCHEM_HEAVY_ATOM_COUNT>
17

> <PUBCHEM_ATOM_DEF_STEREO_COUNT>
0

> <PUBCHEM_ATOM_UDEF_STEREO_COUNT>
1

> <PUBCHEM_BOND_DEF_STEREO_COUNT>
0

> <PUBCHEM_BOND_UDEF_STEREO_COUNT>
0

> <PUBCHEM_ISOTOPIC_ATOM_COUNT>
0

> <PUBCHEM_COMPONENT_COUNT>
1

> <PUBCHEM_CACTVS_TAUTO_COUNT>
5

> <PUBCHEM_CONFORMER_ID>
0400220400000001

> <PUBCHEM_MMFF94_ENERGY>
40.2567

> <PUBCHEM_FEATURE_SELFOVERLAP>
30.448

> <PUBCHEM_SHAPE_FINGERPRINT>
1 1 17761214314957261804
10162869 55 18198642076893509931
10967382 1 18193840563818940258
12173636 292 18340486651679547468
12553582 1 18049166862828710834
13027679 85 18123191474589195541
13132413 78 17978519959283314477
13140716 1 18193276514618038458
14614273 12 18335137536236846333
14817 1 14926769013157921549
14955137 171 17689754107978966315
15042514 8 18337675311995349627
15490181 7 18121229674972237651
15490181 8 17977372837969611323
16945 1 18341339967239175506
18219364 16 17976266729145754080
193761 8 18121781625662314843
19591789 44 18122918524758752435
19868273 325 18050003591045612030
20510252 161 18413106169252405696
21029758 11 17980194515487551655
21524375 3 18118123576145858960
21639500 275 17399789402658409485
21731228 192 18192718838762838384
2334 1 17905891735853847906
23402539 116 18270673276790405335
23419403 2 17341790563698472633
23557571 272 18269002062508600238
23558518 356 18262524693164420602
23559900 14 18270676584753596928
238 59 16960384990796911589
25 1 17616819833874695188
257057 1 18050561047645872742
2748010 2 18122634842337773638
3071541 158 17687739858585003047
3091708 16 9345802111273433066
350125 39 18194410995631908002
352729 6 18194399996188936473
353137 74 18335412474146738363
6992083 37 18126022682586903043
7364860 26 17330835721154973501
81228 2 18337117872605580346
8272917 22 17331964919961482305
84936 182 17479997710842755744
90316 7 18265321992489505090

> <PUBCHEM_SHAPE_MULTIPOLES>
334.02
4.68
4.41
0.9
5.04
1.89
0.04
-2.37
-0.13
-3.55
0.56
-0.39
-0.35
-0.23

> <PUBCHEM_SHAPE_SELFOVERLAP>
704.05

> <PUBCHEM_SHAPE_VOLUME>
192.7

> <PUBCHEM_COORDINATE_TYPE>
2
5
10

$$$$
