67117575
  -OEChem-03102309083D

 25 26  0     1  0  0  0  0  0999 V2000
   -1.8964   -1.9140    0.2183 O   0  0  0  0  0  0  0  0  0  0  0  0
    0.9147   -1.4857   -0.0999 N   0  0  0  0  0  0  0  0  0  0  0  0
   -2.2446    0.4800    0.3774 C   0  0  2  0  0  0  0  0  0  0  0  0
   -1.2082    1.5780    0.1283 C   0  0  0  0  0  0  0  0  0  0  0  0
    0.0987    0.8488   -0.0004 C   0  0  0  0  0  0  0  0  0  0  0  0
   -0.0001   -0.4855    0.0119 C   0  0  0  0  0  0  0  0  0  0  0  0
   -1.4367   -0.7809    0.1986 C   0  0  0  0  0  0  0  0  0  0  0  0
   -3.4196    0.5403   -0.5826 C   0  0  0  0  0  0  0  0  0  0  0  0
    2.3026   -1.3250   -0.4778 C   0  0  0  0  0  0  0  0  0  0  0  0
    1.3151    1.6156   -0.1376 C   0  0  0  0  0  0  0  0  0  0  0  0
    3.0049   -0.2391    0.3368 C   0  0  0  0  0  0  0  0  0  0  0  0
    2.5696    1.1674    0.0270 C   0  0  0  0  0  0  0  0  0  0  0  0
   -2.5952    0.5206    1.4153 H   0  0  0  0  0  0  0  0  0  0  0  0
   -1.1890    2.2776    0.9720 H   0  0  0  0  0  0  0  0  0  0  0  0
   -1.4230    2.1508   -0.7814 H   0  0  0  0  0  0  0  0  0  0  0  0
   -3.0933    0.4302   -1.6228 H   0  0  0  0  0  0  0  0  0  0  0  0
   -3.9512    1.4925   -0.4877 H   0  0  0  0  0  0  0  0  0  0  0  0
   -4.1295   -0.2679   -0.3769 H   0  0  0  0  0  0  0  0  0  0  0  0
    0.5524   -2.4330   -0.0484 H   0  0  0  0  0  0  0  0  0  0  0  0
    2.3693   -1.1077   -1.5507 H   0  0  0  0  0  0  0  0  0  0  0  0
    2.8162   -2.2793   -0.3143 H   0  0  0  0  0  0  0  0  0  0  0  0
    1.1822    2.6726   -0.3598 H   0  0  0  0  0  0  0  0  0  0  0  0
    4.0781   -0.3045    0.1165 H   0  0  0  0  0  0  0  0  0  0  0  0
    2.8975   -0.4216    1.4130 H   0  0  0  0  0  0  0  0  0  0  0  0
    3.3740    1.8950   -0.0670 H   0  0  0  0  0  0  0  0  0  0  0  0
  1  7  2  0  0  0  0
  2  6  1  0  0  0  0
  2  9  1  0  0  0  0
  2 19  1  0  0  0  0
  3  4  1  0  0  0  0
  3  7  1  0  0  0  0
  3  8  1  0  0  0  0
  3 13  1  0  0  0  0
  4  5  1  0  0  0  0
  4 14  1  0  0  0  0
  4 15  1  0  0  0  0
  5  6  2  0  0  0  0
  5 10  1  0  0  0  0
  6  7  1  0  0  0  0
  8 16  1  0  0  0  0
  8 17  1  0  0  0  0
  8 18  1  0  0  0  0
  9 11  1  0  0  0  0
  9 20  1  0  0  0  0
  9 21  1  0  0  0  0
 10 12  2  0  0  0  0
 10 22  1  0  0  0  0
 11 12  1  0  0  0  0
 11 23  1  0  0  0  0
 11 24  1  0  0  0  0
 12 25  1  0  0  0  0
M  END
> <PUBCHEM_COMPOUND_CID>
67117575

> <PUBCHEM_CONFORMER_RMSD>
0.4

> <PUBCHEM_CONFORMER_DIVERSEORDER>
1
2

> <PUBCHEM_MMFF94_PARTIAL_CHARGES>
14
1 -0.57
10 -0.15
11 0.14
12 -0.29
19 0.4
2 -0.87
22 0.15
25 0.15
3 0.06
4 0.14
5 -0.14
6 0.11
7 0.49
9 0.37

> <PUBCHEM_EFFECTIVE_ROTOR_COUNT>
1

> <PUBCHEM_PHARMACOPHORE_FEATURES>
5
1 1 acceptor
1 2 cation
1 2 donor
5 3 4 5 6 7 rings
7 2 5 6 9 10 11 12 rings

> <PUBCHEM_HEAVY_ATOM_COUNT>
12

> <PUBCHEM_ATOM_DEF_STEREO_COUNT>
0

> <PUBCHEM_ATOM_UDEF_STEREO_COUNT>
1

> <PUBCHEM_BOND_DEF_STEREO_COUNT>
0

> <PUBCHEM_BOND_UDEF_STEREO_COUNT>
0

> <PUBCHEM_ISOTOPIC_ATOM_COUNT>
0

> <PUBCHEM_COMPONENT_COUNT>
1

> <PUBCHEM_CACTVS_TAUTO_COUNT>
28

> <PUBCHEM_CONFORMER_ID>
0400220700000001

> <PUBCHEM_MMFF94_ENERGY>
20.3876

> <PUBCHEM_FEATURE_SELFOVERLAP>
25.397

> <PUBCHEM_SHAPE_FINGERPRINT>
12138202 97 18187354459143868015
12382932 28 18412823616302161832
12524768 44 18340212881726115414
12897270 3 18411984684482207324
12932764 1 17530679900881889616
13380535 21 18338534017675136745
13380535 76 18411414012161919415
13897977 150 18339640147916451441
14325111 11 18410292557435536312
14911166 2 18337675204588804238
15219456 202 18409169943426276737
16945 1 18410863118081302320
17990270 104 18409734001613233146
18186145 218 18265893567011771085
19973954 147 18411426119737829008
20201158 50 18411698755661359926
21501502 16 18337110175902820863
2334 1 18194123138286108234
23402655 69 18341601591383524653
23463225 33 18335136501434571040
23552423 10 18188776166127494548
23559900 14 18197503914395957550
2748010 2 18338803445279157686
369184 2 18333449850180798817
5084963 1 18058444314046653241
528886 8 18411414029357424616
63268167 104 18411423903434633600
7364860 26 18272371992712722360

> <PUBCHEM_SHAPE_MULTIPOLES>
236.1
4.62
1.87
0.68
0.47
0.19
-0.02
-0.12
-0.29
-0.2
-0.02
0.06
-0.01
0.19

> <PUBCHEM_SHAPE_SELFOVERLAP>
497.362

> <PUBCHEM_SHAPE_VOLUME>
133.6

> <PUBCHEM_COORDINATE_TYPE>
2
5
10

$$$$
