676946
  -OEChem-03102308503D

 26 26  0     0  0  0  0  0  0999 V2000
   -3.4458    0.5181   -0.0907 O   0  0  0  0  0  0  0  0  0  0  0  0
    5.2260    0.7943   -0.1089 O   0  0  0  0  0  0  0  0  0  0  0  0
   -2.8710   -1.6933    0.2503 O   0  0  0  0  0  0  0  0  0  0  0  0
    1.2500   -0.3843    0.0657 C   0  0  0  0  0  0  0  0  0  0  0  0
    1.5924    0.9499    0.2849 C   0  0  0  0  0  0  0  0  0  0  0  0
    2.2440   -1.3228   -0.2123 C   0  0  0  0  0  0  0  0  0  0  0  0
   -0.1430   -0.7982    0.1271 C   0  0  0  0  0  0  0  0  0  0  0  0
    2.9285    1.3458    0.2260 C   0  0  0  0  0  0  0  0  0  0  0  0
    3.5802   -0.9269   -0.2712 C   0  0  0  0  0  0  0  0  0  0  0  0
    3.9225    0.4074   -0.0519 C   0  0  0  0  0  0  0  0  0  0  0  0
   -4.8350    0.1753   -0.0501 C   0  0  0  0  0  0  0  0  0  0  0  0
   -1.2077    0.0252    0.0045 C   0  0  0  0  0  0  0  0  0  0  0  0
   -2.5825   -0.5202    0.0744 C   0  0  0  0  0  0  0  0  0  0  0  0
   -5.6586    1.4299   -0.2478 C   0  0  0  0  0  0  0  0  0  0  0  0
    0.8555    1.7110    0.5241 H   0  0  0  0  0  0  0  0  0  0  0  0
    1.9964   -2.3671   -0.3872 H   0  0  0  0  0  0  0  0  0  0  0  0
   -0.3079   -1.8638    0.2727 H   0  0  0  0  0  0  0  0  0  0  0  0
    3.1831    2.3874    0.4029 H   0  0  0  0  0  0  0  0  0  0  0  0
    4.3501   -1.6624   -0.4884 H   0  0  0  0  0  0  0  0  0  0  0  0
   -5.0571   -0.5430   -0.8472 H   0  0  0  0  0  0  0  0  0  0  0  0
   -5.0719   -0.2742    0.9207 H   0  0  0  0  0  0  0  0  0  0  0  0
   -1.1103    1.0911   -0.1678 H   0  0  0  0  0  0  0  0  0  0  0  0
   -6.7282    1.2037   -0.2223 H   0  0  0  0  0  0  0  0  0  0  0  0
   -5.4340    2.1652    0.5319 H   0  0  0  0  0  0  0  0  0  0  0  0
   -5.4194    1.9007   -1.2070 H   0  0  0  0  0  0  0  0  0  0  0  0
    5.2793    1.7494    0.0668 H   0  0  0  0  0  0  0  0  0  0  0  0
  1 11  1  0  0  0  0
  1 13  1  0  0  0  0
  2 10  1  0  0  0  0
  2 26  1  0  0  0  0
  3 13  2  0  0  0  0
  4  5  2  0  0  0  0
  4  6  1  0  0  0  0
  4  7  1  0  0  0  0
  5  8  1  0  0  0  0
  5 15  1  0  0  0  0
  6  9  2  0  0  0  0
  6 16  1  0  0  0  0
  7 12  2  0  0  0  0
  7 17  1  0  0  0  0
  8 10  2  0  0  0  0
  8 18  1  0  0  0  0
  9 10  1  0  0  0  0
  9 19  1  0  0  0  0
 11 14  1  0  0  0  0
 11 20  1  0  0  0  0
 11 21  1  0  0  0  0
 12 13  1  0  0  0  0
 12 22  1  0  0  0  0
 14 23  1  0  0  0  0
 14 24  1  0  0  0  0
 14 25  1  0  0  0  0
M  END
> <PUBCHEM_COMPOUND_CID>
676946

> <PUBCHEM_CONFORMER_RMSD>
0.6

> <PUBCHEM_CONFORMER_DIVERSEORDER>
1
9
12
3
14
5
2
4
13
6
11
8
10
7

> <PUBCHEM_MMFF94_PARTIAL_CHARGES>
20
1 -0.43
10 0.08
11 0.28
12 -0.14
13 0.71
15 0.15
16 0.15
17 0.15
18 0.15
19 0.15
2 -0.53
22 0.15
26 0.45
3 -0.57
4 0.03
5 -0.15
6 -0.15
7 -0.18
8 -0.15
9 -0.15

> <PUBCHEM_EFFECTIVE_ROTOR_COUNT>
4

> <PUBCHEM_PHARMACOPHORE_FEATURES>
3
1 2 donor
1 3 acceptor
6 4 5 6 8 9 10 rings

> <PUBCHEM_HEAVY_ATOM_COUNT>
14

> <PUBCHEM_ATOM_DEF_STEREO_COUNT>
0

> <PUBCHEM_ATOM_UDEF_STEREO_COUNT>
0

> <PUBCHEM_BOND_DEF_STEREO_COUNT>
1

> <PUBCHEM_BOND_UDEF_STEREO_COUNT>
0

> <PUBCHEM_ISOTOPIC_ATOM_COUNT>
0

> <PUBCHEM_COMPONENT_COUNT>
1

> <PUBCHEM_CACTVS_TAUTO_COUNT>
2

> <PUBCHEM_CONFORMER_ID>
000A545200000001

> <PUBCHEM_MMFF94_ENERGY>
30.7178

> <PUBCHEM_FEATURE_SELFOVERLAP>
15.223

> <PUBCHEM_SHAPE_FINGERPRINT>
10014705 185 18407758145132551487
100836 57 18260553324623772453
11401426 45 18202561804499182360
11471102 20 18343021082089906790
12500047 106 18411697725001383027
14252887 29 12613025072780788680
15048467 5 18260831514151046348
15242439 84 18342178864482892614
15501527 16 18408888421716862593
17834072 33 18202559605634292935
17834072 8 18272939301883486388
18186145 218 18113611291957712583
200 152 17632576058960265923
20279233 1 18408611369865526275
20645477 56 18333449846450203973
20645477 70 18202004274594652518
21119208 17 17704072901735660253
212847 35 18335138683151402280
22289505 5 18342736278250239484
23402539 116 18341325673498096942
23402655 69 18344144795489104782
23559900 14 18413388713860926898
29717793 49 16988568961562070356
300161 21 18342450448018012779
3060560 45 17775290460954226070
3545911 37 18411984671829329569
4047638 21 18260550013425370834
4072396 5 18341320129497268682
4214541 1 18410856577399978931
42788 4 18410011022787875149
5104073 3 18408039636619433602
522135 26 18341331115406381046
542803 24 17240204339213614365
633830 44 18040714809381897254
77779 3 18410857685264313875
8272917 22 18130510717184214623

> <PUBCHEM_SHAPE_MULTIPOLES>
270.51
11.5
1.45
0.63
9.22
0.06
0
-4.14
-1.01
0.03
0.02
-0.01
0
0.4

> <PUBCHEM_SHAPE_SELFOVERLAP>
554.367

> <PUBCHEM_SHAPE_VOLUME>
156.6

> <PUBCHEM_COORDINATE_TYPE>
2
5
10

$$$$
