6918840
  -OEChem-03112307292D

137144  0     1  0  0  0  0  0999 V2000
    8.5991   -2.6210    0.0000 O   0  0  0  0  0  0  0  0  0  0  0  0
   11.8999    4.2290    0.0000 O   0  0  0  0  0  0  0  0  0  0  0  0
   10.2098    4.6079    0.0000 O   0  0  0  0  0  0  0  0  0  0  0  0
    6.8671   -2.6210    0.0000 O   0  0  0  0  0  0  0  0  0  0  0  0
    8.5991   -4.6210    0.0000 O   0  0  0  0  0  0  0  0  0  0  0  0
    6.8671   -5.6210    0.0000 O   0  0  0  0  0  0  0  0  0  0  0  0
   11.3830    5.8821    0.0000 O   0  0  0  0  0  0  0  0  0  0  0  0
    5.1350   -4.6210    0.0000 O   0  0  0  0  0  0  0  0  0  0  0  0
   13.8088    4.8259    0.0000 O   0  0  0  0  0  0  0  0  0  0  0  0
    9.4651   -3.1210    0.0000 O   0  0  0  0  0  0  0  0  0  0  0  0
    5.1350   -1.6210    0.0000 O   0  0  0  0  0  0  0  0  0  0  0  0
   14.2463    6.7774    0.0000 O   0  0  0  0  0  0  0  0  0  0  0  0
    5.1350   -5.6210    0.0000 O   0  0  0  0  0  0  0  0  0  0  0  0
   12.7749    8.1321    0.0000 O   0  0  0  0  0  0  0  0  0  0  0  0
   10.3312   -5.6210    0.0000 O   0  0  0  0  0  0  0  0  0  0  0  0
    6.8671   -7.6210    0.0000 O   0  0  0  0  0  0  0  0  0  0  0  0
   12.0632   -4.6210    0.0000 O   0  0  0  0  0  0  0  0  0  0  0  0
   11.0848    8.5110    0.0000 O   0  0  0  0  0  0  0  0  0  0  0  0
   12.0632   -2.6210    0.0000 O   0  0  0  0  0  0  0  0  0  0  0  0
    5.1350   -8.6210    0.0000 O   0  0  0  0  0  0  0  0  0  0  0  0
    3.4030   -7.6210    0.0000 O   0  0  0  0  0  0  0  0  0  0  0  0
   11.1972   -1.1210    0.0000 O   0  0  0  0  0  0  0  0  0  0  0  0
    2.5369   -6.1210    0.0000 O   0  0  0  0  0  0  0  0  0  0  0  0
    8.5991    0.6260    0.0000 C   0  0  2  0  0  0  0  0  0  0  0  0
    9.5740    0.4035    0.0000 C   0  0  2  0  0  0  0  0  0  0  0  0
   10.2942    1.1561    0.0000 C   0  0  1  0  0  0  0  0  0  0  0  0
    9.9949    2.1538    0.0000 C   0  0  2  0  0  0  0  0  0  0  0  0
    8.9651   -0.4975    0.0000 C   0  0  0  0  0  0  0  0  0  0  0  0
    8.5991   -1.6210    0.0000 C   0  0  2  0  0  0  0  0  0  0  0  0
    8.2768    1.6165    0.0000 C   0  0  0  0  0  0  0  0  0  0  0  0
   10.0079   -0.4975    0.0000 C   0  0  0  0  0  0  0  0  0  0  0  0
    7.8173    0.0025    0.0000 C   0  0  0  0  0  0  0  0  0  0  0  0
    8.9794    2.3855    0.0000 C   0  0  0  0  0  0  0  0  0  0  0  0
   10.7267    2.9548    0.0000 C   0  0  2  0  0  0  0  0  0  0  0  0
   11.3461    0.8902    0.0000 C   0  0  0  0  0  0  0  0  0  0  0  0
    9.5740   -1.3984    0.0000 C   0  0  0  0  0  0  0  0  0  0  0  0
    7.8173   -0.9975    0.0000 C   0  0  0  0  0  0  0  0  0  0  0  0
   10.8919    0.3543    0.0000 C   0  0  0  0  0  0  0  0  0  0  0  0
   11.7845    2.7133    0.0000 C   0  0  0  0  0  0  0  0  0  0  0  0
   12.0963    1.6741    0.0000 C   0  0  0  0  0  0  0  0  0  0  0  0
    9.9910    3.6321    0.0000 C   0  0  0  0  0  0  0  0  0  0  0  0
   10.9455    3.9306    0.0000 C   0  0  0  0  0  0  0  0  0  0  0  0
    6.9163   -1.4313    0.0000 C   0  0  0  0  0  0  0  0  0  0  0  0
    7.7331   -3.1210    0.0000 C   0  0  2  0  0  0  0  0  0  0  0  0
    7.7331   -4.1210    0.0000 C   0  0  1  0  0  0  0  0  0  0  0  0
    6.8671   -4.6210    0.0000 C   0  0  2  0  0  0  0  0  0  0  0  0
   12.1187    5.2048    0.0000 C   0  0  2  0  0  0  0  0  0  0  0  0
    6.0010   -3.1210    0.0000 C   0  0  1  0  0  0  0  0  0  0  0  0
    6.0010   -4.1210    0.0000 C   0  0  1  0  0  0  0  0  0  0  0  0
   13.0731    5.5032    0.0000 C   0  0  1  0  0  0  0  0  0  0  0  0
    5.1350   -2.6210    0.0000 C   0  0  0  0  0  0  0  0  0  0  0  0
    9.4651   -4.1210    0.0000 C   0  0  2  0  0  0  0  0  0  0  0  0
   13.2918    6.4790    0.0000 C   0  0  2  0  0  0  0  0  0  0  0  0
   11.6018    6.8579    0.0000 C   0  0  1  0  0  0  0  0  0  0  0  0
   12.5562    7.1563    0.0000 C   0  0  1  0  0  0  0  0  0  0  0  0
    6.0010   -6.1210    0.0000 C   0  0  2  0  0  0  0  0  0  0  0  0
   10.3312   -4.6210    0.0000 C   0  0  1  0  0  0  0  0  0  0  0  0
    6.0010   -7.1210    0.0000 C   0  0  1  0  0  0  0  0  0  0  0  0
   10.8661    7.5352    0.0000 C   0  0  0  0  0  0  0  0  0  0  0  0
   11.1972   -4.1210    0.0000 C   0  0  2  0  0  0  0  0  0  0  0  0
   10.3312   -2.6210    0.0000 C   0  0  1  0  0  0  0  0  0  0  0  0
   11.1972   -3.1210    0.0000 C   0  0  1  0  0  0  0  0  0  0  0  0
    5.1350   -7.6210    0.0000 C   0  0  2  0  0  0  0  0  0  0  0  0
    4.2690   -6.1210    0.0000 C   0  0  1  0  0  0  0  0  0  0  0  0
    4.2690   -7.1210    0.0000 C   0  0  1  0  0  0  0  0  0  0  0  0
   10.3312   -1.6210    0.0000 C   0  0  0  0  0  0  0  0  0  0  0  0
    3.4030   -5.6210    0.0000 C   0  0  0  0  0  0  0  0  0  0  0  0
   10.4027    0.2144    0.0000 H   0  0  0  0  0  0  0  0  0  0  0  0
    9.7412    2.9650    0.0000 H   0  0  0  0  0  0  0  0  0  0  0  0
    9.4666   -0.8620    0.0000 H   0  0  0  0  0  0  0  0  0  0  0  0
    9.4666   -0.1329    0.0000 H   0  0  0  0  0  0  0  0  0  0  0  0
    7.8974    2.1069    0.0000 H   0  0  0  0  0  0  0  0  0  0  0  0
    7.7287    1.3266    0.0000 H   0  0  0  0  0  0  0  0  0  0  0  0
   10.4927   -0.8840    0.0000 H   0  0  0  0  0  0  0  0  0  0  0  0
   10.4927   -0.1109    0.0000 H   0  0  0  0  0  0  0  0  0  0  0  0
    7.5483    0.5611    0.0000 H   0  0  0  0  0  0  0  0  0  0  0  0
    7.2128   -0.1354    0.0000 H   0  0  0  0  0  0  0  0  0  0  0  0
    9.2187    2.9575    0.0000 H   0  0  0  0  0  0  0  0  0  0  0  0
    8.4568    2.7192    0.0000 H   0  0  0  0  0  0  0  0  0  0  0  0
   11.0936    0.3240    0.0000 H   0  0  0  0  0  0  0  0  0  0  0  0
   11.8608    0.5445    0.0000 H   0  0  0  0  0  0  0  0  0  0  0  0
    9.5740   -2.0184    0.0000 H   0  0  0  0  0  0  0  0  0  0  0  0
   10.1785   -1.5364    0.0000 H   0  0  0  0  0  0  0  0  0  0  0  0
   10.3948   -0.0162    0.0000 H   0  0  0  0  0  0  0  0  0  0  0  0
   11.2624   -0.1428    0.0000 H   0  0  0  0  0  0  0  0  0  0  0  0
   11.3890    0.7248    0.0000 H   0  0  0  0  0  0  0  0  0  0  0  0
   12.4001    2.7873    0.0000 H   0  0  0  0  0  0  0  0  0  0  0  0
   11.8170    3.3325    0.0000 H   0  0  0  0  0  0  0  0  0  0  0  0
   12.4643    1.1751    0.0000 H   0  0  0  0  0  0  0  0  0  0  0  0
   12.6509    1.9513    0.0000 H   0  0  0  0  0  0  0  0  0  0  0  0
   10.4110    4.0882    0.0000 H   0  0  0  0  0  0  0  0  0  0  0  0
    9.5349    4.0521    0.0000 H   0  0  0  0  0  0  0  0  0  0  0  0
    9.5711    3.1760    0.0000 H   0  0  0  0  0  0  0  0  0  0  0  0
    6.4040   -1.0821    0.0000 H   0  0  0  0  0  0  0  0  0  0  0  0
    6.8700   -2.0496    0.0000 H   0  0  0  0  0  0  0  0  0  0  0  0
    7.7331   -2.5010    0.0000 H   0  0  0  0  0  0  0  0  0  0  0  0
    7.7331   -4.7410    0.0000 H   0  0  0  0  0  0  0  0  0  0  0  0
    6.3301   -4.9310    0.0000 H   0  0  0  0  0  0  0  0  0  0  0  0
   12.5748    4.7848    0.0000 H   0  0  0  0  0  0  0  0  0  0  0  0
    6.0010   -2.5010    0.0000 H   0  0  0  0  0  0  0  0  0  0  0  0
    5.4641   -3.8110    0.0000 H   0  0  0  0  0  0  0  0  0  0  0  0
   13.6648    5.6882    0.0000 H   0  0  0  0  0  0  0  0  0  0  0  0
    4.5244   -2.5133    0.0000 H   0  0  0  0  0  0  0  0  0  0  0  0
    4.9230   -3.2036    0.0000 H   0  0  0  0  0  0  0  0  0  0  0  0
    9.4651   -4.7410    0.0000 H   0  0  0  0  0  0  0  0  0  0  0  0
   13.4275    7.0840    0.0000 H   0  0  0  0  0  0  0  0  0  0  0  0
   11.0100    6.6728    0.0000 H   0  0  0  0  0  0  0  0  0  0  0  0
    4.5981   -4.3110    0.0000 H   0  0  0  0  0  0  0  0  0  0  0  0
   12.1001    7.5763    0.0000 H   0  0  0  0  0  0  0  0  0  0  0  0
    6.5380   -6.4310    0.0000 H   0  0  0  0  0  0  0  0  0  0  0  0
   10.8681   -4.9310    0.0000 H   0  0  0  0  0  0  0  0  0  0  0  0
   14.4005    5.0109    0.0000 H   0  0  0  0  0  0  0  0  0  0  0  0
    4.5981   -1.3110    0.0000 H   0  0  0  0  0  0  0  0  0  0  0  0
    6.0010   -7.7410    0.0000 H   0  0  0  0  0  0  0  0  0  0  0  0
   11.1972   -4.7410    0.0000 H   0  0  0  0  0  0  0  0  0  0  0  0
   10.2938    7.7738    0.0000 H   0  0  0  0  0  0  0  0  0  0  0  0
   10.5317    7.0131    0.0000 H   0  0  0  0  0  0  0  0  0  0  0  0
    9.7942   -2.3110    0.0000 H   0  0  0  0  0  0  0  0  0  0  0  0
   14.3819    7.3824    0.0000 H   0  0  0  0  0  0  0  0  0  0  0  0
   11.7341   -3.4310    0.0000 H   0  0  0  0  0  0  0  0  0  0  0  0
    4.5981   -7.9310    0.0000 H   0  0  0  0  0  0  0  0  0  0  0  0
   13.3667    8.3171    0.0000 H   0  0  0  0  0  0  0  0  0  0  0  0
    4.2690   -5.5010    0.0000 H   0  0  0  0  0  0  0  0  0  0  0  0
    4.2690   -7.7410    0.0000 H   0  0  0  0  0  0  0  0  0  0  0  0
   10.8681   -5.9310    0.0000 H   0  0  0  0  0  0  0  0  0  0  0  0
   10.1191   -1.0384    0.0000 H   0  0  0  0  0  0  0  0  0  0  0  0
    9.7206   -1.7286    0.0000 H   0  0  0  0  0  0  0  0  0  0  0  0
    7.4040   -7.3110    0.0000 H   0  0  0  0  0  0  0  0  0  0  0  0
   12.6002   -4.3110    0.0000 H   0  0  0  0  0  0  0  0  0  0  0  0
   10.6287    8.9310    0.0000 H   0  0  0  0  0  0  0  0  0  0  0  0
    3.8015   -5.1460    0.0000 H   0  0  0  0  0  0  0  0  0  0  0  0
    3.0044   -5.1460    0.0000 H   0  0  0  0  0  0  0  0  0  0  0  0
   12.0632   -2.0010    0.0000 H   0  0  0  0  0  0  0  0  0  0  0  0
    4.5981   -8.9310    0.0000 H   0  0  0  0  0  0  0  0  0  0  0  0
    3.4030   -8.2410    0.0000 H   0  0  0  0  0  0  0  0  0  0  0  0
   11.1972   -0.5010    0.0000 H   0  0  0  0  0  0  0  0  0  0  0  0
    2.0000   -5.8110    0.0000 H   0  0  0  0  0  0  0  0  0  0  0  0
 29  1  1  6  0  0  0
 44  1  1  1  0  0  0
  2 42  1  0  0  0  0
 47  2  1  6  0  0  0
  3 42  2  0  0  0  0
  4 44  1  0  0  0  0
  4 48  1  0  0  0  0
 45  5  1  6  0  0  0
 52  5  1  6  0  0  0
 46  6  1  1  0  0  0
 56  6  1  1  0  0  0
  7 47  1  0  0  0  0
  7 54  1  0  0  0  0
 49  8  1  6  0  0  0
  8108  1  0  0  0  0
 50  9  1  1  0  0  0
  9112  1  0  0  0  0
 10 52  1  0  0  0  0
 10 61  1  0  0  0  0
 11 51  1  0  0  0  0
 11113  1  0  0  0  0
 53 12  1  6  0  0  0
 12119  1  0  0  0  0
 13 56  1  0  0  0  0
 13 64  1  0  0  0  0
 55 14  1  1  0  0  0
 14122  1  0  0  0  0
 57 15  1  1  0  0  0
 15125  1  0  0  0  0
 58 16  1  6  0  0  0
 16128  1  0  0  0  0
 60 17  1  6  0  0  0
 17129  1  0  0  0  0
 18 59  1  0  0  0  0
 18130  1  0  0  0  0
 62 19  1  1  0  0  0
 19133  1  0  0  0  0
 63 20  1  1  0  0  0
 20134  1  0  0  0  0
 65 21  1  6  0  0  0
 21135  1  0  0  0  0
 22 66  1  0  0  0  0
 22136  1  0  0  0  0
 23 67  1  0  0  0  0
 23137  1  0  0  0  0
 24 25  1  0  0  0  0
 24 28  1  0  0  0  0
 24 30  1  6  0  0  0
 24 32  1  0  0  0  0
 25 26  1  0  0  0  0
 25 31  1  0  0  0  0
 25 68  1  1  0  0  0
 26 27  1  0  0  0  0
 26 35  1  0  0  0  0
 26 38  1  6  0  0  0
 27 33  1  0  0  0  0
 27 34  1  0  0  0  0
 27 69  1  1  0  0  0
 28 29  1  0  0  0  0
 28 70  1  0  0  0  0
 28 71  1  0  0  0  0
 29 36  1  0  0  0  0
 29 37  1  0  0  0  0
 30 33  1  0  0  0  0
 30 72  1  0  0  0  0
 30 73  1  0  0  0  0
 31 36  1  0  0  0  0
 31 74  1  0  0  0  0
 31 75  1  0  0  0  0
 32 37  1  0  0  0  0
 32 76  1  0  0  0  0
 32 77  1  0  0  0  0
 33 78  1  0  0  0  0
 33 79  1  0  0  0  0
 34 39  1  0  0  0  0
 34 41  1  1  0  0  0
 34 42  1  0  0  0  0
 35 40  1  0  0  0  0
 35 80  1  0  0  0  0
 35 81  1  0  0  0  0
 36 82  1  0  0  0  0
 36 83  1  0  0  0  0
 37 43  2  0  0  0  0
 38 84  1  0  0  0  0
 38 85  1  0  0  0  0
 38 86  1  0  0  0  0
 39 40  1  0  0  0  0
 39 87  1  0  0  0  0
 39 88  1  0  0  0  0
 40 89  1  0  0  0  0
 40 90  1  0  0  0  0
 41 91  1  0  0  0  0
 41 92  1  0  0  0  0
 41 93  1  0  0  0  0
 43 94  1  0  0  0  0
 43 95  1  0  0  0  0
 44 45  1  0  0  0  0
 44 96  1  0  0  0  0
 45 46  1  0  0  0  0
 45 97  1  0  0  0  0
 46 49  1  0  0  0  0
 46 98  1  0  0  0  0
 47 50  1  0  0  0  0
 47 99  1  0  0  0  0
 48 49  1  0  0  0  0
 48 51  1  1  0  0  0
 48100  1  0  0  0  0
 49101  1  0  0  0  0
 50 53  1  0  0  0  0
 50102  1  0  0  0  0
 51103  1  0  0  0  0
 51104  1  0  0  0  0
 52 57  1  0  0  0  0
 52105  1  0  0  0  0
 53 55  1  0  0  0  0
 53106  1  0  0  0  0
 54 55  1  0  0  0  0
 54 59  1  6  0  0  0
 54107  1  0  0  0  0
 55109  1  0  0  0  0
 56 58  1  0  0  0  0
 56110  1  0  0  0  0
 57 60  1  0  0  0  0
 57111  1  0  0  0  0
 58 63  1  0  0  0  0
 58114  1  0  0  0  0
 59116  1  0  0  0  0
 59117  1  0  0  0  0
 60 62  1  0  0  0  0
 60115  1  0  0  0  0
 61 62  1  0  0  0  0
 61 66  1  6  0  0  0
 61118  1  0  0  0  0
 62120  1  0  0  0  0
 63 65  1  0  0  0  0
 63121  1  0  0  0  0
 64 65  1  0  0  0  0
 64 67  1  1  0  0  0
 64123  1  0  0  0  0
 65124  1  0  0  0  0
 66126  1  0  0  0  0
 66127  1  0  0  0  0
 67131  1  0  0  0  0
 67132  1  0  0  0  0
M  END
> <PUBCHEM_COMPOUND_CID>
6918840

> <PUBCHEM_COMPOUND_CANONICALIZED>
1

> <PUBCHEM_CACTVS_COMPLEXITY>
1760

> <PUBCHEM_CACTVS_HBOND_ACCEPTOR>
23

> <PUBCHEM_CACTVS_HBOND_DONOR>
14

> <PUBCHEM_CACTVS_ROTATABLE_BOND>
13

> <PUBCHEM_CACTVS_SUBSKEYS>
AAADcfB8PgAAAAAAAAAAAAAAAAAAAYAAAAA0aNEiBgAAAADAAAAAGgAACAAAD1SwgAMCCAAABgCIAgDSCAAAAAAgAAAAAAEAAAgRFBIAIQAiQAAFgAAHIAHI6PyPgAAAAAAAAADAAAYAACAAAYAAAAAAAA==

> <PUBCHEM_IUPAC_OPENEYE_NAME>
[(2S,3R,4S,5S,6R)-3,4,5-trihydroxy-6-(hydroxymethyl)tetrahydropyran-2-yl] (1R,4S,5R,9S,10R,13S)-13-[(2S,3R,4S,5R,6R)-5-hydroxy-6-(hydroxymethyl)-3,4-bis[[(2S,3R,4S,5S,6R)-3,4,5-trihydroxy-6-(hydroxymethyl)tetrahydropyran-2-yl]oxy]tetrahydropyran-2-yl]oxy-5,9-dimethyl-14-methylene-tetracyclo[11.2.1.01,10.04,9]hexadecane-5-carboxylate

> <PUBCHEM_IUPAC_CAS_NAME>
(1R,4S,5R,9S,10R,13S)-13-[[(2S,3R,4S,5R,6R)-5-hydroxy-6-(hydroxymethyl)-3,4-bis[[(2S,3R,4S,5S,6R)-3,4,5-trihydroxy-6-(hydroxymethyl)-2-oxanyl]oxy]-2-oxanyl]oxy]-5,9-dimethyl-14-methylene-5-tetracyclo[11.2.1.01,10.04,9]hexadecanecarboxylic acid [(2S,3R,4S,5S,6R)-3,4,5-trihydroxy-6-(hydroxymethyl)-2-oxanyl] ester

> <PUBCHEM_IUPAC_NAME_MARKUP>
[(2<I>S</I>,3<I>R</I>,4<I>S</I>,5<I>S</I>,6<I>R</I>)-3,4,5-trihydroxy-6-(hydroxymethyl)oxan-2-yl] (1<I>R</I>,4<I>S</I>,5<I>R</I>,9<I>S</I>,10<I>R</I>,13<I>S</I>)-13-[(2<I>S</I>,3<I>R</I>,4<I>S</I>,5<I>R</I>,6<I>R</I>)-5-hydroxy-6-(hydroxymethyl)-3,4-bis[[(2<I>S</I>,3<I>R</I>,4<I>S</I>,5<I>S</I>,6<I>R</I>)-3,4,5-trihydroxy-6-(hydroxymethyl)oxan-2-yl]oxy]oxan-2-yl]oxy-5,9-dimethyl-14-methylidenetetracyclo[11.2.1.0<SUP>1,10</SUP>.0<SUP>4,9</SUP>]hexadecane-5-carboxylate

> <PUBCHEM_IUPAC_NAME>
[(2S,3R,4S,5S,6R)-3,4,5-trihydroxy-6-(hydroxymethyl)oxan-2-yl] (1R,4S,5R,9S,10R,13S)-13-[(2S,3R,4S,5R,6R)-5-hydroxy-6-(hydroxymethyl)-3,4-bis[[(2S,3R,4S,5S,6R)-3,4,5-trihydroxy-6-(hydroxymethyl)oxan-2-yl]oxy]oxan-2-yl]oxy-5,9-dimethyl-14-methylidenetetracyclo[11.2.1.01,10.04,9]hexadecane-5-carboxylate

> <PUBCHEM_IUPAC_SYSTEMATIC_NAME>
[(2S,3R,4S,5S,6R)-6-(hydroxymethyl)-3,4,5-tris(oxidanyl)oxan-2-yl] (1R,4S,5R,9S,10R,13S)-13-[(2S,3R,4S,5R,6R)-6-(hydroxymethyl)-3,4-bis[[(2S,3R,4S,5S,6R)-6-(hydroxymethyl)-3,4,5-tris(oxidanyl)oxan-2-yl]oxy]-5-oxidanyl-oxan-2-yl]oxy-5,9-dimethyl-14-methylidene-tetracyclo[11.2.1.01,10.04,9]hexadecane-5-carboxylate

> <PUBCHEM_IUPAC_TRADITIONAL_NAME>
(1R,4S,5R,9S,10R,13S)-13-[(2S,3R,4S,5R,6R)-5-hydroxy-6-methylol-3,4-bis[[(2S,3R,4S,5S,6R)-3,4,5-trihydroxy-6-methylol-tetrahydropyran-2-yl]oxy]tetrahydropyran-2-yl]oxy-5,9-dimethyl-14-methylene-tetracyclo[11.2.1.01,10.04,9]hexadecane-5-carboxylic acid [(2S,3R,4S,5S,6R)-3,4,5-trihydroxy-6-methylol-tetrahydropyran-2-yl] ester

> <PUBCHEM_IUPAC_INCHI>
InChI=1S/C44H70O23/c1-17-11-43-9-5-22-41(2,7-4-8-42(22,3)40(59)66-38-33(58)30(55)26(51)20(14-47)62-38)23(43)6-10-44(17,16-43)67-39-35(65-37-32(57)29(54)25(50)19(13-46)61-37)34(27(52)21(15-48)63-39)64-36-31(56)28(53)24(49)18(12-45)60-36/h18-39,45-58H,1,4-16H2,2-3H3/t18-,19-,20-,21-,22+,23+,24-,25-,26-,27-,28+,29+,30+,31-,32-,33-,34+,35-,36+,37+,38+,39+,41-,42-,43-,44+/m1/s1

> <PUBCHEM_IUPAC_INCHIKEY>
HELXLJCILKEWJH-NCGAPWICSA-N

> <PUBCHEM_XLOGP3_AA>
-2.8

> <PUBCHEM_EXACT_MASS>
966.43078848

> <PUBCHEM_MOLECULAR_FORMULA>
C44H70O23

> <PUBCHEM_MOLECULAR_WEIGHT>
967.0

> <PUBCHEM_OPENEYE_CAN_SMILES>
CC12CCCC(C1CCC34C2CCC(C3)(C(=C)C4)OC5C(C(C(C(O5)CO)O)OC6C(C(C(C(O6)CO)O)O)O)OC7C(C(C(C(O7)CO)O)O)O)(C)C(=O)OC8C(C(C(C(O8)CO)O)O)O

> <PUBCHEM_OPENEYE_ISO_SMILES>
C[C@@]12CCC[C@@]([C@H]1CC[C@]34[C@H]2CC[C@](C3)(C(=C)C4)O[C@H]5[C@@H]([C@H]([C@@H]([C@H](O5)CO)O)O[C@H]6[C@@H]([C@H]([C@@H]([C@H](O6)CO)O)O)O)O[C@H]7[C@@H]([C@H]([C@@H]([C@H](O7)CO)O)O)O)(C)C(=O)O[C@H]8[C@@H]([C@H]([C@@H]([C@H](O8)CO)O)O)O

> <PUBCHEM_CACTVS_TPSA>
374

> <PUBCHEM_MONOISOTOPIC_WEIGHT>
966.43078848

> <PUBCHEM_TOTAL_CHARGE>
0

> <PUBCHEM_HEAVY_ATOM_COUNT>
67

> <PUBCHEM_ATOM_DEF_STEREO_COUNT>
26

> <PUBCHEM_ATOM_UDEF_STEREO_COUNT>
0

> <PUBCHEM_BOND_DEF_STEREO_COUNT>
0

> <PUBCHEM_BOND_UDEF_STEREO_COUNT>
0

> <PUBCHEM_ISOTOPIC_ATOM_COUNT>
0

> <PUBCHEM_COMPONENT_COUNT>
1

> <PUBCHEM_CACTVS_TAUTO_COUNT>
1

> <PUBCHEM_COORDINATE_TYPE>
1
5
255

> <PUBCHEM_BONDANNOTATIONS>
29  1  6
44  1  5
53  12  6
55  14  5
57  15  5
58  16  6
60  17  6
62  19  5
47  2  6
63  20  5
65  21  6
24  30  6
25  68  5
26  38  6
27  69  5
34  41  5
48  51  5
45  5  6
52  5  6
54  59  6
46  6  5
56  6  5
61  66  6
64  67  5
49  8  6
50  9  5

$$$$
