6951076
  -OEChem-03112306563D

 31 32  0     1  0  0  0  0  0999 V2000
    1.1724    2.8254    0.4146 O   0  0  0  0  0  0  0  0  0  0  0  0
    2.1879   -2.3653    0.1845 O   0  0  0  0  0  0  0  0  0  0  0  0
    4.7155   -0.6736    0.3675 O   0  0  0  0  0  0  0  0  0  0  0  0
    0.6961   -0.6417    0.5038 N   0  0  0  0  0  0  0  0  0  0  0  0
    2.5692    1.0956   -0.1810 N   0  0  0  0  0  0  0  0  0  0  0  0
    0.1936    0.6387    0.0278 C   0  0  1  0  0  0  0  0  0  0  0  0
    2.6905   -0.2103   -0.8123 C   0  0  2  0  0  0  0  0  0  0  0  0
   -1.0322    1.0765    0.8131 C   0  0  0  0  0  0  0  0  0  0  0  0
    1.3371    1.6359    0.1548 C   0  0  0  0  0  0  0  0  0  0  0  0
    1.8814   -1.1852    0.0325 C   0  0  0  0  0  0  0  0  0  0  0  0
   -2.2807    0.3793    0.3393 C   0  0  0  0  0  0  0  0  0  0  0  0
    4.1460   -0.6331   -0.9300 C   0  0  0  0  0  0  0  0  0  0  0  0
   -3.0393    0.9509   -0.6722 C   0  0  0  0  0  0  0  0  0  0  0  0
   -2.6532   -0.8240    0.9210 C   0  0  0  0  0  0  0  0  0  0  0  0
   -4.1952    0.3053   -1.1112 C   0  0  0  0  0  0  0  0  0  0  0  0
   -3.8091   -1.4694    0.4819 C   0  0  0  0  0  0  0  0  0  0  0  0
   -4.5801   -0.9048   -0.5343 C   0  0  0  0  0  0  0  0  0  0  0  0
   -0.0300    0.5357   -1.0420 H   0  0  0  0  0  0  0  0  0  0  0  0
    2.2325   -0.1523   -1.8064 H   0  0  0  0  0  0  0  0  0  0  0  0
   -1.1951    2.1581    0.7165 H   0  0  0  0  0  0  0  0  0  0  0  0
   -0.8933    0.9051    1.8893 H   0  0  0  0  0  0  0  0  0  0  0  0
    0.0798   -1.2553    1.0268 H   0  0  0  0  0  0  0  0  0  0  0  0
    3.3681    1.7228   -0.1935 H   0  0  0  0  0  0  0  0  0  0  0  0
    4.7201    0.0742   -1.5375 H   0  0  0  0  0  0  0  0  0  0  0  0
    4.2402   -1.6274   -1.3772 H   0  0  0  0  0  0  0  0  0  0  0  0
   -2.7470    1.8917   -1.1300 H   0  0  0  0  0  0  0  0  0  0  0  0
   -2.0686   -1.2702    1.7201 H   0  0  0  0  0  0  0  0  0  0  0  0
   -4.7952    0.7446   -1.9027 H   0  0  0  0  0  0  0  0  0  0  0  0
   -4.1102   -2.4106    0.9326 H   0  0  0  0  0  0  0  0  0  0  0  0
    4.6474    0.2178    0.7495 H   0  0  0  0  0  0  0  0  0  0  0  0
   -5.4803   -1.4072   -0.8758 H   0  0  0  0  0  0  0  0  0  0  0  0
  1  9  2  0  0  0  0
  2 10  2  0  0  0  0
  3 12  1  0  0  0  0
  3 30  1  0  0  0  0
  4  6  1  0  0  0  0
  4 10  1  0  0  0  0
  4 22  1  0  0  0  0
  5  7  1  0  0  0  0
  5  9  1  0  0  0  0
  5 23  1  0  0  0  0
  6  8  1  0  0  0  0
  6  9  1  0  0  0  0
  6 18  1  0  0  0  0
  7 10  1  0  0  0  0
  7 12  1  0  0  0  0
  7 19  1  0  0  0  0
  8 11  1  0  0  0  0
  8 20  1  0  0  0  0
  8 21  1  0  0  0  0
 11 13  2  0  0  0  0
 11 14  1  0  0  0  0
 12 24  1  0  0  0  0
 12 25  1  0  0  0  0
 13 15  1  0  0  0  0
 13 26  1  0  0  0  0
 14 16  2  0  0  0  0
 14 27  1  0  0  0  0
 15 17  2  0  0  0  0
 15 28  1  0  0  0  0
 16 17  1  0  0  0  0
 16 29  1  0  0  0  0
 17 31  1  0  0  0  0
M  END
> <PUBCHEM_COMPOUND_CID>
6951076

> <PUBCHEM_CONFORMER_RMSD>
0.6

> <PUBCHEM_CONFORMER_DIVERSEORDER>
1
18
24
21
22
10
25
6
2
23
7
5
3
26
14
28
13
12
20
8
9
27
17
16
15
11
19
4

> <PUBCHEM_MMFF94_PARTIAL_CHARGES>
25
1 -0.57
10 0.57
11 -0.14
12 0.28
13 -0.15
14 -0.15
15 -0.15
16 -0.15
17 -0.15
2 -0.57
22 0.37
23 0.37
26 0.15
27 0.15
28 0.15
29 0.15
3 -0.68
30 0.4
31 0.15
4 -0.73
5 -0.73
6 0.36
7 0.36
8 0.14
9 0.57

> <PUBCHEM_EFFECTIVE_ROTOR_COUNT>
3.8

> <PUBCHEM_PHARMACOPHORE_FEATURES>
8
1 1 acceptor
1 2 acceptor
1 3 acceptor
1 3 donor
1 4 donor
1 5 donor
6 11 13 14 15 16 17 rings
6 4 5 6 7 9 10 rings

> <PUBCHEM_HEAVY_ATOM_COUNT>
17

> <PUBCHEM_ATOM_DEF_STEREO_COUNT>
2

> <PUBCHEM_ATOM_UDEF_STEREO_COUNT>
0

> <PUBCHEM_BOND_DEF_STEREO_COUNT>
0

> <PUBCHEM_BOND_UDEF_STEREO_COUNT>
0

> <PUBCHEM_ISOTOPIC_ATOM_COUNT>
0

> <PUBCHEM_COMPONENT_COUNT>
1

> <PUBCHEM_CACTVS_TAUTO_COUNT>
4

> <PUBCHEM_CONFORMER_ID>
006A10A400000001

> <PUBCHEM_MMFF94_ENERGY>
52.9378

> <PUBCHEM_FEATURE_SELFOVERLAP>
40.609

> <PUBCHEM_SHAPE_FINGERPRINT>
10498660 4 16660630848655379173
11543360 7 16950858001693552278
11806522 49 18343303673716026832
12553582 1 18339936913018700347
12707595 3 18343023297939636165
13296908 3 18411981403549218793
13705890 14 18411420635006771092
13862211 1 18411419476083272798
14251717 144 18412265060073845262
14252887 29 17632302250674265254
14576447 43 18413668006698754838
15757776 16 18410857629445465886
18186145 218 18187077378245885089
19433438 38 18040715853132712359
200 152 18202281411896421691
20361792 2 17132110264998592457
20645477 70 18201155546349389325
20671657 53 18341618104968229369
20871999 31 18262234418105441861
21256008 61 18342737416405633572
221490 88 18265058109567158155
22646028 28 17988926669410381759
231179 274 11025794297295137344
23402539 116 18272655593566083494
23402655 69 18188487974085833277
23557571 272 17986674758091362796
23559900 14 18335975462982017449
2748010 2 17903933492590714888
2838139 119 15937554700412575086
2871803 45 18408323289218376503
3323516 105 18335422413070261523
4921388 177 16370738049482444435
7364860 26 18200874101105516944
93112 12 18408038520481706789
9709674 26 18190741041099513035

> <PUBCHEM_SHAPE_MULTIPOLES>
322.28
8.92
2
0.96
0.94
0.48
0.1
-3.34
2.14
-0.85
-0.33
0.39
-0.01
0.43

> <PUBCHEM_SHAPE_SELFOVERLAP>
679.874

> <PUBCHEM_SHAPE_VOLUME>
178.4

> <PUBCHEM_COORDINATE_TYPE>
2
5
10

$$$$
