6992261
  -OEChem-03112306553D

 30 31  0     1  0  0  0  0  0999 V2000
    0.6847   -2.3162   -0.0128 O   0  0  0  0  0  0  0  0  0  0  0  0
   -0.8876    2.7210    0.4804 O   0  0  0  0  0  0  0  0  0  0  0  0
   -1.0074   -0.7356   -0.0644 N   0  0  0  0  0  0  0  0  0  0  0  0
    0.7997    1.1764    0.1625 N   0  0  0  0  0  0  0  0  0  0  0  0
   -1.4456    0.5830   -0.5004 C   0  0  1  0  0  0  0  0  0  0  0  0
   -2.8961    0.6568   -0.0391 C   0  0  0  0  0  0  0  0  0  0  0  0
   -2.1235   -1.5783    0.3261 C   0  0  0  0  0  0  0  0  0  0  0  0
    1.2450   -0.0167   -0.5523 C   0  0  2  0  0  0  0  0  0  0  0  0
   -3.3523   -0.7985   -0.1206 C   0  0  0  0  0  0  0  0  0  0  0  0
    0.3107   -1.1539   -0.1472 C   0  0  0  0  0  0  0  0  0  0  0  0
   -0.5228    1.5999    0.1375 C   0  0  0  0  0  0  0  0  0  0  0  0
    2.6981   -0.3345   -0.2382 C   0  0  0  0  0  0  0  0  0  0  0  0
    3.6132    0.8062   -0.6862 C   0  0  0  0  0  0  0  0  0  0  0  0
    2.8840   -0.6098    1.2548 C   0  0  0  0  0  0  0  0  0  0  0  0
   -1.3598    0.6364   -1.5919 H   0  0  0  0  0  0  0  0  0  0  0  0
   -3.4992    1.3210   -0.6652 H   0  0  0  0  0  0  0  0  0  0  0  0
   -2.9688    1.0122    0.9963 H   0  0  0  0  0  0  0  0  0  0  0  0
   -2.0896   -1.6888    1.4151 H   0  0  0  0  0  0  0  0  0  0  0  0
   -2.0469   -2.5675   -0.1341 H   0  0  0  0  0  0  0  0  0  0  0  0
    1.1109    0.1647   -1.6261 H   0  0  0  0  0  0  0  0  0  0  0  0
   -4.2309   -1.0064    0.4960 H   0  0  0  0  0  0  0  0  0  0  0  0
   -3.5962   -1.0492   -1.1602 H   0  0  0  0  0  0  0  0  0  0  0  0
    2.9928   -1.2374   -0.7887 H   0  0  0  0  0  0  0  0  0  0  0  0
    1.4837    1.8350    0.5206 H   0  0  0  0  0  0  0  0  0  0  0  0
    3.4831    1.7143   -0.0898 H   0  0  0  0  0  0  0  0  0  0  0  0
    4.6627    0.5062   -0.5892 H   0  0  0  0  0  0  0  0  0  0  0  0
    3.4398    1.0574   -1.7380 H   0  0  0  0  0  0  0  0  0  0  0  0
    2.6200    0.2557    1.8716 H   0  0  0  0  0  0  0  0  0  0  0  0
    3.9361   -0.8390    1.4615 H   0  0  0  0  0  0  0  0  0  0  0  0
    2.3046   -1.4656    1.6096 H   0  0  0  0  0  0  0  0  0  0  0  0
  1 10  2  0  0  0  0
  2 11  2  0  0  0  0
  3  5  1  0  0  0  0
  3  7  1  0  0  0  0
  3 10  1  0  0  0  0
  4  8  1  0  0  0  0
  4 11  1  0  0  0  0
  4 24  1  0  0  0  0
  5  6  1  0  0  0  0
  5 11  1  0  0  0  0
  5 15  1  0  0  0  0
  6  9  1  0  0  0  0
  6 16  1  0  0  0  0
  6 17  1  0  0  0  0
  7  9  1  0  0  0  0
  7 18  1  0  0  0  0
  7 19  1  0  0  0  0
  8 10  1  0  0  0  0
  8 12  1  0  0  0  0
  8 20  1  0  0  0  0
  9 21  1  0  0  0  0
  9 22  1  0  0  0  0
 12 13  1  0  0  0  0
 12 14  1  0  0  0  0
 12 23  1  0  0  0  0
 13 25  1  0  0  0  0
 13 26  1  0  0  0  0
 13 27  1  0  0  0  0
 14 28  1  0  0  0  0
 14 29  1  0  0  0  0
 14 30  1  0  0  0  0
M  END
> <PUBCHEM_COMPOUND_CID>
6992261

> <PUBCHEM_CONFORMER_RMSD>
0.6

> <PUBCHEM_CONFORMER_DIVERSEORDER>
1
2

> <PUBCHEM_MMFF94_PARTIAL_CHARGES>
10
1 -0.57
10 0.57
11 0.57
2 -0.57
24 0.37
3 -0.66
4 -0.73
5 0.36
7 0.3
8 0.36

> <PUBCHEM_EFFECTIVE_ROTOR_COUNT>
2

> <PUBCHEM_PHARMACOPHORE_FEATURES>
6
1 1 acceptor
1 2 acceptor
1 4 donor
3 12 13 14 hydrophobe
5 3 5 6 7 9 rings
6 3 4 5 8 10 11 rings

> <PUBCHEM_HEAVY_ATOM_COUNT>
14

> <PUBCHEM_ATOM_DEF_STEREO_COUNT>
2

> <PUBCHEM_ATOM_UDEF_STEREO_COUNT>
0

> <PUBCHEM_BOND_DEF_STEREO_COUNT>
0

> <PUBCHEM_BOND_UDEF_STEREO_COUNT>
0

> <PUBCHEM_ISOTOPIC_ATOM_COUNT>
0

> <PUBCHEM_COMPONENT_COUNT>
1

> <PUBCHEM_CACTVS_TAUTO_COUNT>
2

> <PUBCHEM_CONFORMER_ID>
006AB18500000001

> <PUBCHEM_MMFF94_ENERGY>
42.5002

> <PUBCHEM_FEATURE_SELFOVERLAP>
30.544

> <PUBCHEM_SHAPE_FINGERPRINT>
10130415 120 18335137622199333393
108231 29 18268435804976628177
10857977 72 18342450460992572523
10967382 1 18411139181399298023
11132069 177 18412258428412238250
12032990 46 18340777025764932079
12382932 28 18412548678355313859
13380535 21 17984153555947438864
14325111 11 18407760339391451878
14614273 12 18189049807052443125
15375462 189 18187650240445625811
15775835 57 18040719173195017332
16945 1 18339643339113796349
17846911 113 18412255125577080353
193761 8 17907300953167387015
20201158 50 18408884036164895751
20510252 161 18343304755974056096
20525323 117 18341045212260242509
20588541 1 18408326596738898271
20645476 183 17749965478013839550
21501502 16 18124598582831361578
22802520 49 17914636976605527598
2334 1 18123467438911868837
23402539 116 18342451569553051726
23402655 69 18340473467031685045
23419403 2 15758726916023774087
23463225 33 18261106344707705394
23552423 10 18119251657817258878
23559900 14 18342460340282516796
2748010 2 18195802084141893069
3312278 4 18335144210478770227
353137 74 18336548218102883549
528886 8 18412543227793960187
537710 114 18335707181938865093
53812653 166 18342174458046816161
53812653 8 18409735045279730084
7364860 26 17838901786534387369
81228 2 18269284469198198113

> <PUBCHEM_SHAPE_MULTIPOLES>
266.41
5.15
2.1
0.82
1.22
0.48
0.11
-0.38
-0.13
-0.59
0.3
0.45
-0.01
-0.29

> <PUBCHEM_SHAPE_SELFOVERLAP>
553.139

> <PUBCHEM_SHAPE_VOLUME>
152.5

> <PUBCHEM_COORDINATE_TYPE>
2
5
10

$$$$
