7074739
  -OEChem-03112306363D

 33 34  0     1  0  0  0  0  0999 V2000
   -0.1334    2.5954   -0.3016 O   0  0  0  0  0  0  0  0  0  0  0  0
   -0.8385   -2.6382   -0.3751 O   0  0  0  0  0  0  0  0  0  0  0  0
   -1.4535    0.7409    0.1313 N   0  0  0  0  0  0  0  0  0  0  0  0
    0.5875   -0.8185   -0.4007 N   0  0  0  0  0  0  0  0  0  0  0  0
   -1.5413   -0.5899    0.7135 C   0  0  1  0  0  0  0  0  0  0  0  0
   -3.0254   -0.9445    0.6614 C   0  0  0  0  0  0  0  0  0  0  0  0
   -2.7606    1.2857   -0.1714 C   0  0  0  0  0  0  0  0  0  0  0  0
   -3.6128    0.0399   -0.3529 C   0  0  0  0  0  0  0  0  0  0  0  0
    0.9402    0.4715    0.1927 C   0  0  2  0  0  0  0  0  0  0  0  0
   -0.2487    1.3986   -0.0529 C   0  0  0  0  0  0  0  0  0  0  0  0
   -0.6120   -1.4619   -0.1088 C   0  0  0  0  0  0  0  0  0  0  0  0
    2.2243    1.0199   -0.4075 C   0  0  0  0  0  0  0  0  0  0  0  0
    3.4622    0.1530   -0.1145 C   0  0  0  0  0  0  0  0  0  0  0  0
    3.6937   -0.0430    1.3845 C   0  0  0  0  0  0  0  0  0  0  0  0
    3.3183   -1.2088   -0.7980 C   0  0  0  0  0  0  0  0  0  0  0  0
   -1.1730   -0.5686    1.7458 H   0  0  0  0  0  0  0  0  0  0  0  0
   -3.4792   -0.7577    1.6425 H   0  0  0  0  0  0  0  0  0  0  0  0
   -3.2289   -1.9845    0.3915 H   0  0  0  0  0  0  0  0  0  0  0  0
   -2.7262    1.9270   -1.0562 H   0  0  0  0  0  0  0  0  0  0  0  0
   -3.0869    1.8765    0.6910 H   0  0  0  0  0  0  0  0  0  0  0  0
    1.0227    0.3414    1.2772 H   0  0  0  0  0  0  0  0  0  0  0  0
   -3.4820   -0.3591   -1.3663 H   0  0  0  0  0  0  0  0  0  0  0  0
   -4.6777    0.2296   -0.1937 H   0  0  0  0  0  0  0  0  0  0  0  0
    2.1137    1.1420   -1.4936 H   0  0  0  0  0  0  0  0  0  0  0  0
    2.4097    2.0261   -0.0091 H   0  0  0  0  0  0  0  0  0  0  0  0
    1.1572   -1.2741   -1.0966 H   0  0  0  0  0  0  0  0  0  0  0  0
    4.3343    0.6658   -0.5395 H   0  0  0  0  0  0  0  0  0  0  0  0
    2.9251   -0.6673    1.8507 H   0  0  0  0  0  0  0  0  0  0  0  0
    3.7173    0.9206    1.9039 H   0  0  0  0  0  0  0  0  0  0  0  0
    4.6573   -0.5356    1.5552 H   0  0  0  0  0  0  0  0  0  0  0  0
    2.7500   -1.9403   -0.2162 H   0  0  0  0  0  0  0  0  0  0  0  0
    4.3204   -1.6525   -0.8766 H   0  0  0  0  0  0  0  0  0  0  0  0
    2.9603   -1.1271   -1.8292 H   0  0  0  0  0  0  0  0  0  0  0  0
  1 10  2  0  0  0  0
  2 11  2  0  0  0  0
  3  5  1  0  0  0  0
  3  7  1  0  0  0  0
  3 10  1  0  0  0  0
  4  9  1  0  0  0  0
  4 11  1  0  0  0  0
  4 26  1  0  0  0  0
  5  6  1  0  0  0  0
  5 11  1  0  0  0  0
  5 16  1  0  0  0  0
  6  8  1  0  0  0  0
  6 17  1  0  0  0  0
  6 18  1  0  0  0  0
  7  8  1  0  0  0  0
  7 19  1  0  0  0  0
  7 20  1  0  0  0  0
  8 22  1  0  0  0  0
  8 23  1  0  0  0  0
  9 10  1  0  0  0  0
  9 12  1  0  0  0  0
  9 21  1  0  0  0  0
 12 13  1  0  0  0  0
 12 24  1  0  0  0  0
 12 25  1  0  0  0  0
 13 14  1  0  0  0  0
 13 15  1  0  0  0  0
 13 27  1  0  0  0  0
 14 28  1  0  0  0  0
 14 29  1  0  0  0  0
 14 30  1  0  0  0  0
 15 31  1  0  0  0  0
 15 32  1  0  0  0  0
 15 33  1  0  0  0  0
M  END
> <PUBCHEM_COMPOUND_CID>
7074739

> <PUBCHEM_CONFORMER_RMSD>
0.6

> <PUBCHEM_CONFORMER_DIVERSEORDER>
1
2

> <PUBCHEM_MMFF94_PARTIAL_CHARGES>
10
1 -0.57
10 0.57
11 0.57
2 -0.57
26 0.37
3 -0.66
4 -0.73
5 0.36
7 0.3
9 0.36

> <PUBCHEM_EFFECTIVE_ROTOR_COUNT>
3

> <PUBCHEM_PHARMACOPHORE_FEATURES>
6
1 1 acceptor
1 2 acceptor
1 4 donor
3 13 14 15 hydrophobe
5 3 5 6 7 8 rings
6 3 4 5 9 10 11 rings

> <PUBCHEM_HEAVY_ATOM_COUNT>
15

> <PUBCHEM_ATOM_DEF_STEREO_COUNT>
2

> <PUBCHEM_ATOM_UDEF_STEREO_COUNT>
0

> <PUBCHEM_BOND_DEF_STEREO_COUNT>
0

> <PUBCHEM_BOND_UDEF_STEREO_COUNT>
0

> <PUBCHEM_ISOTOPIC_ATOM_COUNT>
0

> <PUBCHEM_COMPONENT_COUNT>
1

> <PUBCHEM_CACTVS_TAUTO_COUNT>
2

> <PUBCHEM_CONFORMER_ID>
006BF3B300000001

> <PUBCHEM_MMFF94_ENERGY>
51.9548

> <PUBCHEM_FEATURE_SELFOVERLAP>
30.569

> <PUBCHEM_SHAPE_FINGERPRINT>
10130415 120 18259984898555393792
10967382 1 18410859853948465862
11132069 177 18342171159195434587
11543360 7 15141254281204162163
12032990 46 18409739464532078235
12382932 28 18342172327922508882
124424 183 18040991856294486769
13380535 76 18263643979174606921
14144814 61 18409171025758087352
14325111 11 18411141324640784652
14614273 12 18116993278456756221
14993402 34 18409729581843920333
15669948 3 18337392763666516374
16945 1 18270970149177054777
17804303 29 18341616954534140070
17846911 113 18411694357483032089
18186145 218 18059303054118522380
19026448 5 16081372950933153579
193761 8 17834678575293509157
20279233 1 18273494581125595474
20510252 161 18272933782618928752
20528008 55 18130783477777282666
20645476 183 17313683632004320214
21501502 16 18051413173415475709
2334 1 17547575241488828719
23402539 116 18343007896345142565
23419403 2 16477342418607063965
23463225 33 18334577940642223120
23532345 42 18412545439912990704
23552423 10 17687187907837020429
23559900 14 18341333289218885270
2748010 2 18339655421015140159
3286 77 17203607051944485202
34934 24 18263641934665010284
4072396 5 18189882150550508803
4175511 318 17748821891278385997
43471831 8 18262798441315682827
465052 167 18043547199102207907
57812782 119 18412824685474659616
69090 78 18130783481803588479
7364860 26 18123757722988342528
81228 2 18264497195550002752

> <PUBCHEM_SHAPE_MULTIPOLES>
286.99
6.15
2.06
0.89
2.17
0.05
-0.18
0.52
-0.51
-0.57
0.36
0.51
0.12
0.33

> <PUBCHEM_SHAPE_SELFOVERLAP>
591.032

> <PUBCHEM_SHAPE_VOLUME>
165.8

> <PUBCHEM_COORDINATE_TYPE>
2
5
10

$$$$
