71581002
  -OEChem-03102307552D

177187  0     1  0  0  0  0  0999 V2000
   14.3523    1.9270    0.0000 O   0  0  0  0  0  0  0  0  0  0  0  0
   14.2358    3.0892    0.0000 O   0  0  0  0  0  0  0  0  0  0  0  0
   12.9292   -6.3170    0.0000 O   0  0  0  0  0  0  0  0  0  0  0  0
   12.8040    5.3997    0.0000 O   0  0  0  0  0  0  0  0  0  0  0  0
   11.1972   -6.3170    0.0000 O   0  0  0  0  0  0  0  0  0  0  0  0
   11.7818    6.7979    0.0000 O   0  0  0  0  0  0  0  0  0  0  0  0
   12.9292   -8.3170    0.0000 O   0  0  0  0  0  0  0  0  0  0  0  0
   11.1972   -9.3170    0.0000 O   0  0  0  0  0  0  0  0  0  0  0  0
   14.4186    6.5801    0.0000 O   0  0  0  0  0  0  0  0  0  0  0  0
    9.4651   -8.3170    0.0000 O   0  0  0  0  0  0  0  0  0  0  0  0
   14.2036    8.5685    0.0000 O   0  0  0  0  0  0  0  0  0  0  0  0
   12.3740    9.3766    0.0000 O   0  0  0  0  0  0  0  0  0  0  0  0
   13.7953   -6.8170    0.0000 O   0  0  0  0  0  0  0  0  0  0  0  0
    9.4651   -5.3170    0.0000 O   0  0  0  0  0  0  0  0  0  0  0  0
    9.9523    7.6060    0.0000 O   0  0  0  0  0  0  0  0  0  0  0  0
    8.5991   -6.8170    0.0000 O   0  0  0  0  0  0  0  0  0  0  0  0
   14.6613   -9.3170    0.0000 O   0  0  0  0  0  0  0  0  0  0  0  0
   16.3933   -8.3170    0.0000 O   0  0  0  0  0  0  0  0  0  0  0  0
    7.7331   -9.3170    0.0000 O   0  0  0  0  0  0  0  0  0  0  0  0
   16.3933   -6.3170    0.0000 O   0  0  0  0  0  0  0  0  0  0  0  0
    6.0010   -8.3170    0.0000 O   0  0  0  0  0  0  0  0  0  0  0  0
    6.0010   -6.3170    0.0000 O   0  0  0  0  0  0  0  0  0  0  0  0
    6.8671   -4.8170    0.0000 O   0  0  0  0  0  0  0  0  0  0  0  0
    5.1350   -6.8170    0.0000 O   0  0  0  0  0  0  0  0  0  0  0  0
    4.2690   -9.3170    0.0000 O   0  0  0  0  0  0  0  0  0  0  0  0
    2.5369   -8.3170    0.0000 O   0  0  0  0  0  0  0  0  0  0  0  0
    2.5369   -6.3170    0.0000 O   0  0  0  0  0  0  0  0  0  0  0  0
    5.1350   -4.8170    0.0000 O   0  0  0  0  0  0  0  0  0  0  0  0
   12.9585   -0.1202    0.0000 C   0  0  1  0  0  0  0  0  0  0  0  0
   13.8264   -0.6168    0.0000 C   0  0  2  0  0  0  0  0  0  0  0  0
   13.1640    0.8525    0.0000 C   0  0  2  0  0  0  0  0  0  0  0  0
   13.8303   -1.6168    0.0000 C   0  0  1  0  0  0  0  0  0  0  0  0
   14.1523    0.9593    0.0000 C   0  0  2  0  0  0  0  0  0  0  0  0
   14.5609    0.0531    0.0000 C   0  0  0  0  0  0  0  0  0  0  0  0
   12.9662   -2.1202    0.0000 C   0  0  2  0  0  0  0  0  0  0  0  0
   12.7617    1.7551    0.0000 C   0  0  1  0  0  0  0  0  0  0  0  0
   12.0944   -0.6235    0.0000 C   0  0  0  0  0  0  0  0  0  0  0  0
   13.4946    2.4178    0.0000 C   0  0  1  0  0  0  0  0  0  0  0  0
   12.0983   -1.6235    0.0000 C   0  0  0  0  0  0  0  0  0  0  0  0
   12.9542   -3.1617    0.0000 C   0  0  2  0  0  0  0  0  0  0  0  0
   12.0906    0.3765    0.0000 C   0  0  0  0  0  0  0  0  0  0  0  0
   14.7422   -2.1201    0.0000 C   0  0  0  0  0  0  0  0  0  0  0  0
   13.8542   -3.6860    0.0000 C   0  0  0  0  0  0  0  0  0  0  0  0
   12.6271    2.9153    0.0000 C   0  0  0  0  0  0  0  0  0  0  0  0
   12.0043   -3.6860    0.0000 C   0  0  0  0  0  0  0  0  0  0  0  0
   11.7833    1.9617    0.0000 C   0  0  0  0  0  0  0  0  0  0  0  0
   14.7543   -3.1617    0.0000 C   0  0  0  0  0  0  0  0  0  0  0  0
   13.8263    4.0015    0.0000 C   0  0  1  0  0  0  0  0  0  0  0  0
   12.0901   -2.6584    0.0000 C   0  0  0  0  0  0  0  0  0  0  0  0
   12.8321    3.8940    0.0000 C   0  0  0  0  0  0  0  0  0  0  0  0
   13.8668   -4.7709    0.0000 C   0  0  0  0  0  0  0  0  0  0  0  0
   11.9917   -4.7709    0.0000 C   0  0  0  0  0  0  0  0  0  0  0  0
   12.9292   -5.3170    0.0000 C   0  0  2  0  0  0  0  0  0  0  0  0
   13.7188    4.9957    0.0000 C   0  0  0  0  0  0  0  0  0  0  0  0
   14.7386    4.4110    0.0000 C   0  0  0  0  0  0  0  0  0  0  0  0
   12.0632   -6.8170    0.0000 C   0  0  2  0  0  0  0  0  0  0  0  0
   12.6965    6.3939    0.0000 C   0  0  2  0  0  0  0  0  0  0  0  0
   12.0632   -7.8170    0.0000 C   0  0  1  0  0  0  0  0  0  0  0  0
   11.1972   -8.3170    0.0000 C   0  0  2  0  0  0  0  0  0  0  0  0
   13.5038    6.9841    0.0000 C   0  0  1  0  0  0  0  0  0  0  0  0
   10.3312   -6.8170    0.0000 C   0  0  1  0  0  0  0  0  0  0  0  0
   10.3312   -7.8170    0.0000 C   0  0  1  0  0  0  0  0  0  0  0  0
   13.3963    7.9783    0.0000 C   0  0  2  0  0  0  0  0  0  0  0  0
   11.6743    7.7921    0.0000 C   0  0  1  0  0  0  0  0  0  0  0  0
   12.4815    8.3824    0.0000 C   0  0  1  0  0  0  0  0  0  0  0  0
    9.4651   -6.3170    0.0000 C   0  0  0  0  0  0  0  0  0  0  0  0
   13.7953   -7.8170    0.0000 C   0  0  2  0  0  0  0  0  0  0  0  0
   10.7595    8.1962    0.0000 C   0  0  0  0  0  0  0  0  0  0  0  0
   14.6613   -8.3170    0.0000 C   0  0  1  0  0  0  0  0  0  0  0  0
    8.5991   -7.8170    0.0000 C   0  0  2  0  0  0  0  0  0  0  0  0
   15.5273   -7.8170    0.0000 C   0  0  1  0  0  0  0  0  0  0  0  0
   14.6613   -6.3170    0.0000 C   0  0  2  0  0  0  0  0  0  0  0  0
    7.7331   -8.3170    0.0000 C   0  0  1  0  0  0  0  0  0  0  0  0
   15.5273   -6.8170    0.0000 C   0  0  2  0  0  0  0  0  0  0  0  0
    6.8671   -7.8170    0.0000 C   0  0  2  0  0  0  0  0  0  0  0  0
    7.7331   -6.3170    0.0000 C   0  0  1  0  0  0  0  0  0  0  0  0
    6.8671   -6.8170    0.0000 C   0  0  1  0  0  0  0  0  0  0  0  0
   14.6613   -5.3170    0.0000 C   0  0  0  0  0  0  0  0  0  0  0  0
    7.7331   -5.3170    0.0000 C   0  0  0  0  0  0  0  0  0  0  0  0
    5.1350   -7.8170    0.0000 C   0  0  2  0  0  0  0  0  0  0  0  0
    4.2690   -8.3170    0.0000 C   0  0  1  0  0  0  0  0  0  0  0  0
    3.4030   -7.8170    0.0000 C   0  0  2  0  0  0  0  0  0  0  0  0
    4.2690   -6.3170    0.0000 C   0  0  1  0  0  0  0  0  0  0  0  0
    3.4030   -6.8170    0.0000 C   0  0  1  0  0  0  0  0  0  0  0  0
    4.2690   -5.3170    0.0000 C   0  0  0  0  0  0  0  0  0  0  0  0
   14.6047   -0.9585    0.0000 H   0  0  0  0  0  0  0  0  0  0  0  0
   12.3187    0.7629    0.0000 H   0  0  0  0  0  0  0  0  0  0  0  0
   14.5615   -1.1833    0.0000 H   0  0  0  0  0  0  0  0  0  0  0  0
   14.9972    1.0525    0.0000 H   0  0  0  0  0  0  0  0  0  0  0  0
   14.9283   -0.4463    0.0000 H   0  0  0  0  0  0  0  0  0  0  0  0
   15.0962    0.3659    0.0000 H   0  0  0  0  0  0  0  0  0  0  0  0
   13.7007   -2.5480    0.0000 H   0  0  0  0  0  0  0  0  0  0  0  0
   12.3719    1.2729    0.0000 H   0  0  0  0  0  0  0  0  0  0  0  0
   11.8801   -0.0417    0.0000 H   0  0  0  0  0  0  0  0  0  0  0  0
   11.4842   -0.7335    0.0000 H   0  0  0  0  0  0  0  0  0  0  0  0
   11.4873   -1.5182    0.0000 H   0  0  0  0  0  0  0  0  0  0  0  0
   11.8885   -2.2069    0.0000 H   0  0  0  0  0  0  0  0  0  0  0  0
   12.3985    0.9146    0.0000 H   0  0  0  0  0  0  0  0  0  0  0  0
   11.5524    0.6844    0.0000 H   0  0  0  0  0  0  0  0  0  0  0  0
   11.7826   -0.1616    0.0000 H   0  0  0  0  0  0  0  0  0  0  0  0
   15.3543   -2.2192    0.0000 H   0  0  0  0  0  0  0  0  0  0  0  0
   14.9445   -1.5341    0.0000 H   0  0  0  0  0  0  0  0  0  0  0  0
   12.0369    3.1051    0.0000 H   0  0  0  0  0  0  0  0  0  0  0  0
   12.3766    2.3481    0.0000 H   0  0  0  0  0  0  0  0  0  0  0  0
   11.8020   -3.0999    0.0000 H   0  0  0  0  0  0  0  0  0  0  0  0
   11.3922   -3.7850    0.0000 H   0  0  0  0  0  0  0  0  0  0  0  0
   11.9114    2.5684    0.0000 H   0  0  0  0  0  0  0  0  0  0  0  0
   11.1766    2.0899    0.0000 H   0  0  0  0  0  0  0  0  0  0  0  0
   11.6551    1.3551    0.0000 H   0  0  0  0  0  0  0  0  0  0  0  0
   15.2936   -3.4676    0.0000 H   0  0  0  0  0  0  0  0  0  0  0  0
   12.4021   -2.1226    0.0000 H   0  0  0  0  0  0  0  0  0  0  0  0
   11.5543   -2.3463    0.0000 H   0  0  0  0  0  0  0  0  0  0  0  0
   11.7780   -3.1941    0.0000 H   0  0  0  0  0  0  0  0  0  0  0  0
   12.8302    4.5140    0.0000 H   0  0  0  0  0  0  0  0  0  0  0  0
   12.2153    3.9570    0.0000 H   0  0  0  0  0  0  0  0  0  0  0  0
   14.0826   -5.3522    0.0000 H   0  0  0  0  0  0  0  0  0  0  0  0
   14.4764   -4.6578    0.0000 H   0  0  0  0  0  0  0  0  0  0  0  0
   11.3821   -4.6578    0.0000 H   0  0  0  0  0  0  0  0  0  0  0  0
   11.7759   -5.3522    0.0000 H   0  0  0  0  0  0  0  0  0  0  0  0
   12.3917   -5.6260    0.0000 H   0  0  0  0  0  0  0  0  0  0  0  0
   14.3374    4.9543    0.0000 H   0  0  0  0  0  0  0  0  0  0  0  0
   13.8670    5.5977    0.0000 H   0  0  0  0  0  0  0  0  0  0  0  0
   14.9925    3.8454    0.0000 H   0  0  0  0  0  0  0  0  0  0  0  0
   15.3043    4.6649    0.0000 H   0  0  0  0  0  0  0  0  0  0  0  0
   14.4848    4.9766    0.0000 H   0  0  0  0  0  0  0  0  0  0  0  0
   12.6002   -7.1270    0.0000 H   0  0  0  0  0  0  0  0  0  0  0  0
   12.1960    6.0280    0.0000 H   0  0  0  0  0  0  0  0  0  0  0  0
   12.0632   -8.4370    0.0000 H   0  0  0  0  0  0  0  0  0  0  0  0
   10.6603   -8.6270    0.0000 H   0  0  0  0  0  0  0  0  0  0  0  0
   14.0043    7.3501    0.0000 H   0  0  0  0  0  0  0  0  0  0  0  0
   10.3312   -6.1970    0.0000 H   0  0  0  0  0  0  0  0  0  0  0  0
   10.3312   -8.4370    0.0000 H   0  0  0  0  0  0  0  0  0  0  0  0
   13.9635    7.7279    0.0000 H   0  0  0  0  0  0  0  0  0  0  0  0
   11.1738    7.4262    0.0000 H   0  0  0  0  0  0  0  0  0  0  0  0
   12.9820    8.7483    0.0000 H   0  0  0  0  0  0  0  0  0  0  0  0
    8.8546   -6.2094    0.0000 H   0  0  0  0  0  0  0  0  0  0  0  0
    9.2531   -6.8996    0.0000 H   0  0  0  0  0  0  0  0  0  0  0  0
   13.7953   -8.4370    0.0000 H   0  0  0  0  0  0  0  0  0  0  0  0
   10.6603   -9.6270    0.0000 H   0  0  0  0  0  0  0  0  0  0  0  0
   14.9191    6.9461    0.0000 H   0  0  0  0  0  0  0  0  0  0  0  0
   11.1047    8.7112    0.0000 H   0  0  0  0  0  0  0  0  0  0  0  0
   10.3123    8.6255    0.0000 H   0  0  0  0  0  0  0  0  0  0  0  0
   14.1369    9.1850    0.0000 H   0  0  0  0  0  0  0  0  0  0  0  0
   15.1982   -8.6270    0.0000 H   0  0  0  0  0  0  0  0  0  0  0  0
    8.5991   -8.4370    0.0000 H   0  0  0  0  0  0  0  0  0  0  0  0
   11.8069    9.6270    0.0000 H   0  0  0  0  0  0  0  0  0  0  0  0
    8.9282   -5.0070    0.0000 H   0  0  0  0  0  0  0  0  0  0  0  0
   16.0643   -7.5070    0.0000 H   0  0  0  0  0  0  0  0  0  0  0  0
   14.1244   -6.0070    0.0000 H   0  0  0  0  0  0  0  0  0  0  0  0
    7.1962   -8.6270    0.0000 H   0  0  0  0  0  0  0  0  0  0  0  0
   15.5273   -6.1970    0.0000 H   0  0  0  0  0  0  0  0  0  0  0  0
    9.3851    7.8564    0.0000 H   0  0  0  0  0  0  0  0  0  0  0  0
    6.3301   -7.5070    0.0000 H   0  0  0  0  0  0  0  0  0  0  0  0
   15.1982   -9.6270    0.0000 H   0  0  0  0  0  0  0  0  0  0  0  0
    8.2700   -6.0070    0.0000 H   0  0  0  0  0  0  0  0  0  0  0  0
    6.8671   -6.1970    0.0000 H   0  0  0  0  0  0  0  0  0  0  0  0
   15.2813   -5.3170    0.0000 H   0  0  0  0  0  0  0  0  0  0  0  0
   14.6613   -4.6970    0.0000 H   0  0  0  0  0  0  0  0  0  0  0  0
   14.0413   -5.3170    0.0000 H   0  0  0  0  0  0  0  0  0  0  0  0
   16.9303   -8.0070    0.0000 H   0  0  0  0  0  0  0  0  0  0  0  0
    7.1962   -9.6270    0.0000 H   0  0  0  0  0  0  0  0  0  0  0  0
   16.9303   -6.6270    0.0000 H   0  0  0  0  0  0  0  0  0  0  0  0
    8.3437   -5.4247    0.0000 H   0  0  0  0  0  0  0  0  0  0  0  0
    7.9451   -4.7344    0.0000 H   0  0  0  0  0  0  0  0  0  0  0  0
    6.0010   -5.6970    0.0000 H   0  0  0  0  0  0  0  0  0  0  0  0
    5.1350   -8.4370    0.0000 H   0  0  0  0  0  0  0  0  0  0  0  0
    3.7320   -8.6270    0.0000 H   0  0  0  0  0  0  0  0  0  0  0  0
    6.8671   -4.1970    0.0000 H   0  0  0  0  0  0  0  0  0  0  0  0
    2.8660   -7.5070    0.0000 H   0  0  0  0  0  0  0  0  0  0  0  0
    4.8059   -6.0070    0.0000 H   0  0  0  0  0  0  0  0  0  0  0  0
    3.4030   -6.1970    0.0000 H   0  0  0  0  0  0  0  0  0  0  0  0
    3.7320   -9.6270    0.0000 H   0  0  0  0  0  0  0  0  0  0  0  0
    4.0569   -4.7344    0.0000 H   0  0  0  0  0  0  0  0  0  0  0  0
    3.6584   -5.4247    0.0000 H   0  0  0  0  0  0  0  0  0  0  0  0
    2.0000   -8.0070    0.0000 H   0  0  0  0  0  0  0  0  0  0  0  0
    2.5369   -5.6970    0.0000 H   0  0  0  0  0  0  0  0  0  0  0  0
    5.1350   -4.1970    0.0000 H   0  0  0  0  0  0  0  0  0  0  0  0
  1 33  1  0  0  0  0
 38  1  1  1  0  0  0
  2 38  1  0  0  0  0
  2 48  1  0  0  0  0
 53  3  1  1  0  0  0
 56  3  1  1  0  0  0
  4 54  1  0  0  0  0
 57  4  1  6  0  0  0
  5 56  1  0  0  0  0
  5 61  1  0  0  0  0
  6 57  1  0  0  0  0
  6 64  1  0  0  0  0
 58  7  1  6  0  0  0
 67  7  1  6  0  0  0
 59  8  1  1  0  0  0
  8139  1  0  0  0  0
 60  9  1  1  0  0  0
  9140  1  0  0  0  0
 62 10  1  6  0  0  0
 70 10  1  1  0  0  0
 63 11  1  6  0  0  0
 11143  1  0  0  0  0
 65 12  1  1  0  0  0
 12146  1  0  0  0  0
 13 67  1  0  0  0  0
 13 72  1  0  0  0  0
 14 66  1  0  0  0  0
 14147  1  0  0  0  0
 15 68  1  0  0  0  0
 15152  1  0  0  0  0
 16 70  1  0  0  0  0
 16 76  1  0  0  0  0
 69 17  1  1  0  0  0
 17154  1  0  0  0  0
 71 18  1  1  0  0  0
 18160  1  0  0  0  0
 73 19  1  6  0  0  0
 19161  1  0  0  0  0
 74 20  1  6  0  0  0
 20162  1  0  0  0  0
 75 21  1  1  0  0  0
 80 21  1  1  0  0  0
 77 22  1  6  0  0  0
 22165  1  0  0  0  0
 23 79  1  0  0  0  0
 23168  1  0  0  0  0
 24 80  1  0  0  0  0
 24 83  1  0  0  0  0
 81 25  1  6  0  0  0
 25172  1  0  0  0  0
 82 26  1  1  0  0  0
 26175  1  0  0  0  0
 84 27  1  6  0  0  0
 27176  1  0  0  0  0
 28 85  1  0  0  0  0
 28177  1  0  0  0  0
 29 30  1  0  0  0  0
 29 31  1  0  0  0  0
 29 37  1  0  0  0  0
 29 41  1  1  0  0  0
 30 32  1  0  0  0  0
 30 34  1  0  0  0  0
 30 86  1  6  0  0  0
 31 33  1  0  0  0  0
 31 36  1  0  0  0  0
 31 87  1  6  0  0  0
 32 35  1  0  0  0  0
 32 42  1  0  0  0  0
 32 88  1  1  0  0  0
 33 34  1  0  0  0  0
 33 89  1  6  0  0  0
 34 90  1  0  0  0  0
 34 91  1  0  0  0  0
 35 39  1  0  0  0  0
 35 40  1  0  0  0  0
 35 92  1  6  0  0  0
 36 38  1  0  0  0  0
 36 46  1  6  0  0  0
 36 93  1  0  0  0  0
 37 39  1  0  0  0  0
 37 94  1  0  0  0  0
 37 95  1  0  0  0  0
 38 44  1  0  0  0  0
 39 96  1  0  0  0  0
 39 97  1  0  0  0  0
 40 43  1  0  0  0  0
 40 45  1  0  0  0  0
 40 49  1  1  0  0  0
 41 98  1  0  0  0  0
 41 99  1  0  0  0  0
 41100  1  0  0  0  0
 42 47  1  0  0  0  0
 42101  1  0  0  0  0
 42102  1  0  0  0  0
 43 47  2  0  0  0  0
 43 51  1  0  0  0  0
 44 50  1  0  0  0  0
 44103  1  0  0  0  0
 44104  1  0  0  0  0
 45 52  1  0  0  0  0
 45105  1  0  0  0  0
 45106  1  0  0  0  0
 46107  1  0  0  0  0
 46108  1  0  0  0  0
 46109  1  0  0  0  0
 47110  1  0  0  0  0
 48 50  1  0  0  0  0
 48 54  1  0  0  0  0
 48 55  1  6  0  0  0
 49111  1  0  0  0  0
 49112  1  0  0  0  0
 49113  1  0  0  0  0
 50114  1  0  0  0  0
 50115  1  0  0  0  0
 51 53  1  0  0  0  0
 51116  1  0  0  0  0
 51117  1  0  0  0  0
 52 53  1  0  0  0  0
 52118  1  0  0  0  0
 52119  1  0  0  0  0
 53120  1  0  0  0  0
 54121  1  0  0  0  0
 54122  1  0  0  0  0
 55123  1  0  0  0  0
 55124  1  0  0  0  0
 55125  1  0  0  0  0
 56 58  1  0  0  0  0
 56126  1  0  0  0  0
 57 60  1  0  0  0  0
 57127  1  0  0  0  0
 58 59  1  0  0  0  0
 58128  1  0  0  0  0
 59 62  1  0  0  0  0
 59129  1  0  0  0  0
 60 63  1  0  0  0  0
 60130  1  0  0  0  0
 61 62  1  0  0  0  0
 61 66  1  1  0  0  0
 61131  1  0  0  0  0
 62132  1  0  0  0  0
 63 65  1  0  0  0  0
 63133  1  0  0  0  0
 64 65  1  0  0  0  0
 64 68  1  6  0  0  0
 64134  1  0  0  0  0
 65135  1  0  0  0  0
 66136  1  0  0  0  0
 66137  1  0  0  0  0
 67 69  1  0  0  0  0
 67138  1  0  0  0  0
 68141  1  0  0  0  0
 68142  1  0  0  0  0
 69 71  1  0  0  0  0
 69144  1  0  0  0  0
 70 73  1  0  0  0  0
 70145  1  0  0  0  0
 71 74  1  0  0  0  0
 71148  1  0  0  0  0
 72 74  1  0  0  0  0
 72 78  1  1  0  0  0
 72149  1  0  0  0  0
 73 75  1  0  0  0  0
 73150  1  0  0  0  0
 74151  1  0  0  0  0
 75 77  1  0  0  0  0
 75153  1  0  0  0  0
 76 77  1  0  0  0  0
 76 79  1  1  0  0  0
 76155  1  0  0  0  0
 77156  1  0  0  0  0
 78157  1  0  0  0  0
 78158  1  0  0  0  0
 78159  1  0  0  0  0
 79163  1  0  0  0  0
 79164  1  0  0  0  0
 80 81  1  0  0  0  0
 80166  1  0  0  0  0
 81 82  1  0  0  0  0
 81167  1  0  0  0  0
 82 84  1  0  0  0  0
 82169  1  0  0  0  0
 83 84  1  0  0  0  0
 83 85  1  1  0  0  0
 83170  1  0  0  0  0
 84171  1  0  0  0  0
 85173  1  0  0  0  0
 85174  1  0  0  0  0
M  END
> <PUBCHEM_COMPOUND_CID>
71581002

> <PUBCHEM_COMPOUND_CANONICALIZED>
1

> <PUBCHEM_CACTVS_COMPLEXITY>
2310

> <PUBCHEM_CACTVS_HBOND_ACCEPTOR>
28

> <PUBCHEM_CACTVS_HBOND_DONOR>
16

> <PUBCHEM_CACTVS_ROTATABLE_BOND>
15

> <PUBCHEM_CACTVS_SUBSKEYS>
AAADcfB8PgAAAAAAAAAAAAAAAAAAAaJEAAA0aJEiQAASAGCAAAAAGgAACAAAD1SwgAMCCAAABgCAAiBCAAAAAAAgAAAACAAAAAgREAIAAQAiQAAFwAAPAAPA4PwPgAAAAAAAAADAAAQAACAAAYAADAAAAA==

> <PUBCHEM_IUPAC_OPENEYE_NAME>
(2S,3R,4R,5R,6S)-2-[(2R,3R,4S,5S,6R)-5-[(2S,3R,4S,5R,6R)-3,5-dihydroxy-6-(hydroxymethyl)-4-[(2S,3R,4S,5S,6R)-3,4,5-trihydroxy-6-(hydroxymethyl)tetrahydropyran-2-yl]oxy-tetrahydropyran-2-yl]oxy-4-hydroxy-6-(hydroxymethyl)-2-[(1S,2S,4S,5'S,6S,7S,8R,9S,12S,13R,16S)-5',7,9,13-tetramethyl-5'-[[(2S,3R,4S,5S,6R)-3,4,5-trihydroxy-6-(hydroxymethyl)tetrahydropyran-2-yl]oxymethyl]spiro[5-oxapentacyclo[10.8.0.02,9.04,8.013,18]icos-18-ene-6,2'-tetrahydrofuran]-16-yl]oxy-tetrahydropyran-3-yl]oxy-6-methyl-tetrahydropyran-3,4,5-triol

> <PUBCHEM_IUPAC_CAS_NAME>
(2S,3R,4R,5R,6S)-2-[[(2R,3R,4S,5S,6R)-5-[[(2S,3R,4S,5R,6R)-3,5-dihydroxy-6-(hydroxymethyl)-4-[[(2S,3R,4S,5S,6R)-3,4,5-trihydroxy-6-(hydroxymethyl)-2-oxanyl]oxy]-2-oxanyl]oxy]-4-hydroxy-6-(hydroxymethyl)-2-[[(1S,2S,4S,5'S,6S,7S,8R,9S,12S,13R,16S)-5',7,9,13-tetramethyl-5'-[[(2S,3R,4S,5S,6R)-3,4,5-trihydroxy-6-(hydroxymethyl)-2-oxanyl]oxymethyl]-16-spiro[5-oxapentacyclo[10.8.0.02,9.04,8.013,18]eicos-18-ene-6,2'-oxolane]yl]oxy]-3-oxanyl]oxy]-6-methyloxane-3,4,5-triol

> <PUBCHEM_IUPAC_NAME_MARKUP>
(2<I>S</I>,3<I>R</I>,4<I>R</I>,5<I>R</I>,6<I>S</I>)-2-[(2<I>R</I>,3<I>R</I>,4<I>S</I>,5<I>S</I>,6<I>R</I>)-5-[(2<I>S</I>,3<I>R</I>,4<I>S</I>,5<I>R</I>,6<I>R</I>)-3,5-dihydroxy-6-(hydroxymethyl)-4-[(2<I>S</I>,3<I>R</I>,4<I>S</I>,5<I>S</I>,6<I>R</I>)-3,4,5-trihydroxy-6-(hydroxymethyl)oxan-2-yl]oxyoxan-2-yl]oxy-4-hydroxy-6-(hydroxymethyl)-2-[(1<I>S</I>,2<I>S</I>,4<I>S</I>,5&apos;<I>S</I>,6<I>S</I>,7<I>S</I>,8<I>R</I>,9<I>S</I>,12<I>S</I>,13<I>R</I>,16<I>S</I>)-5&apos;,7,9,13-tetramethyl-5&apos;-[[(2<I>S</I>,3<I>R</I>,4<I>S</I>,5<I>S</I>,6<I>R</I>)-3,4,5-trihydroxy-6-(hydroxymethyl)oxan-2-yl]oxymethyl]spiro[5-oxapentacyclo[10.8.0.0<SUP>2,9</SUP>.0<SUP>4,8</SUP>.0<SUP>13,18</SUP>]icos-18-ene-6,2&apos;-oxolane]-16-yl]oxyoxan-3-yl]oxy-6-methyloxane-3,4,5-triol

> <PUBCHEM_IUPAC_NAME>
(2S,3R,4R,5R,6S)-2-[(2R,3R,4S,5S,6R)-5-[(2S,3R,4S,5R,6R)-3,5-dihydroxy-6-(hydroxymethyl)-4-[(2S,3R,4S,5S,6R)-3,4,5-trihydroxy-6-(hydroxymethyl)oxan-2-yl]oxyoxan-2-yl]oxy-4-hydroxy-6-(hydroxymethyl)-2-[(1S,2S,4S,5'S,6S,7S,8R,9S,12S,13R,16S)-5',7,9,13-tetramethyl-5'-[[(2S,3R,4S,5S,6R)-3,4,5-trihydroxy-6-(hydroxymethyl)oxan-2-yl]oxymethyl]spiro[5-oxapentacyclo[10.8.0.02,9.04,8.013,18]icos-18-ene-6,2'-oxolane]-16-yl]oxyoxan-3-yl]oxy-6-methyloxane-3,4,5-triol

> <PUBCHEM_IUPAC_SYSTEMATIC_NAME>
(2S,3R,4R,5R,6S)-2-[(2R,3R,4S,5S,6R)-6-(hydroxymethyl)-5-[(2S,3R,4S,5R,6R)-6-(hydroxymethyl)-4-[(2S,3R,4S,5S,6R)-6-(hydroxymethyl)-3,4,5-tris(oxidanyl)oxan-2-yl]oxy-3,5-bis(oxidanyl)oxan-2-yl]oxy-2-[(1S,2S,4S,5'S,6S,7S,8R,9S,12S,13R,16S)-5'-[[(2S,3R,4S,5S,6R)-6-(hydroxymethyl)-3,4,5-tris(oxidanyl)oxan-2-yl]oxymethyl]-5',7,9,13-tetramethyl-spiro[5-oxapentacyclo[10.8.0.02,9.04,8.013,18]icos-18-ene-6,2'-oxolane]-16-yl]oxy-4-oxidanyl-oxan-3-yl]oxy-6-methyl-oxane-3,4,5-triol

> <PUBCHEM_IUPAC_TRADITIONAL_NAME>
(2S,3R,4R,5R,6S)-2-[(2R,3R,4S,5S,6R)-5-[(2S,3R,4S,5R,6R)-3,5-dihydroxy-6-methylol-4-[(2S,3R,4S,5S,6R)-3,4,5-trihydroxy-6-methylol-tetrahydropyran-2-yl]oxy-tetrahydropyran-2-yl]oxy-4-hydroxy-6-methylol-2-[(1S,2S,4S,5'S,6S,7S,8R,9S,12S,13R,16S)-5',7,9,13-tetramethyl-5'-[[(2S,3R,4S,5S,6R)-3,4,5-trihydroxy-6-methylol-tetrahydropyran-2-yl]oxymethyl]spiro[5-oxapentacyclo[10.8.0.02,9.04,8.013,18]eicos-18-ene-6,2'-tetrahydrofuran]-16-yl]oxy-tetrahydropyran-3-yl]oxy-6-methyl-tetrahydropyran-3,4,5-triol

> <PUBCHEM_IUPAC_INCHI>
InChI=1S/C57H92O28/c1-21-33-28(84-57(21)13-12-54(3,85-57)20-74-49-41(69)39(67)35(63)29(16-58)77-49)15-27-25-7-6-23-14-24(8-10-55(23,4)26(25)9-11-56(27,33)5)76-53-48(83-50-42(70)38(66)34(62)22(2)75-50)44(72)46(32(19-61)80-53)81-52-45(73)47(37(65)31(18-60)79-52)82-51-43(71)40(68)36(64)30(17-59)78-51/h6,21-22,24-53,58-73H,7-20H2,1-5H3/t21-,22-,24-,25+,26-,27-,28-,29+,30+,31+,32+,33-,34-,35+,36+,37+,38+,39-,40-,41+,42+,43+,44-,45+,46+,47-,48+,49+,50-,51-,52-,53+,54-,55-,56-,57-/m0/s1

> <PUBCHEM_IUPAC_INCHIKEY>
NMIRRCSMDCNCKV-ZRCSLNBESA-N

> <PUBCHEM_XLOGP3_AA>
-3.6

> <PUBCHEM_EXACT_MASS>
1224.57751227

> <PUBCHEM_MOLECULAR_FORMULA>
C57H92O28

> <PUBCHEM_MOLECULAR_WEIGHT>
1225.3

> <PUBCHEM_OPENEYE_CAN_SMILES>
CC1C2C(CC3C2(CCC4C3CC=C5C4(CCC(C5)OC6C(C(C(C(O6)CO)OC7C(C(C(C(O7)CO)O)OC8C(C(C(C(O8)CO)O)O)O)O)O)OC9C(C(C(C(O9)C)O)O)O)C)C)OC11CCC(O1)(C)COC1C(C(C(C(O1)CO)O)O)O

> <PUBCHEM_OPENEYE_ISO_SMILES>
C[C@H]1[C@H]2[C@H](C[C@@H]3[C@@]2(CC[C@H]4[C@H]3CC=C5[C@@]4(CC[C@@H](C5)O[C@H]6[C@@H]([C@H]([C@@H]([C@H](O6)CO)O[C@H]7[C@@H]([C@H]([C@@H]([C@H](O7)CO)O)O[C@H]8[C@@H]([C@H]([C@@H]([C@H](O8)CO)O)O)O)O)O)O[C@H]9[C@@H]([C@@H]([C@H]([C@@H](O9)C)O)O)O)C)C)O[C@]11CC[C@@](O1)(C)CO[C@H]1[C@@H]([C@H]([C@@H]([C@H](O1)CO)O)O)O

> <PUBCHEM_CACTVS_TPSA>
434

> <PUBCHEM_MONOISOTOPIC_WEIGHT>
1224.57751227

> <PUBCHEM_TOTAL_CHARGE>
0

> <PUBCHEM_HEAVY_ATOM_COUNT>
85

> <PUBCHEM_ATOM_DEF_STEREO_COUNT>
36

> <PUBCHEM_ATOM_UDEF_STEREO_COUNT>
0

> <PUBCHEM_BOND_DEF_STEREO_COUNT>
0

> <PUBCHEM_BOND_UDEF_STEREO_COUNT>
0

> <PUBCHEM_ISOTOPIC_ATOM_COUNT>
0

> <PUBCHEM_COMPONENT_COUNT>
1

> <PUBCHEM_CACTVS_TAUTO_COUNT>
-1

> <PUBCHEM_COORDINATE_TYPE>
1
5
255

> <PUBCHEM_BONDANNOTATIONS>
38  1  5
62  10  6
70  10  5
63  11  6
65  12  5
69  17  5
71  18  5
73  19  6
74  20  6
75  21  5
80  21  5
77  22  6
81  25  6
82  26  5
84  27  6
29  41  5
53  3  5
56  3  5
30  86  6
31  87  6
32  88  5
33  89  6
35  92  6
36  46  6
57  4  6
40  49  5
48  55  6
61  66  5
64  68  6
58  7  6
67  7  6
72  78  5
76  79  5
59  8  5
83  85  5
60  9  5

$$$$
