736756
  -OEChem-03102309073D

 28 30  0     1  0  0  0  0  0999 V2000
   -0.1079   -2.6521   -0.2282 O   0  0  0  0  0  0  0  0  0  0  0  0
    0.1079    2.6520   -0.2282 O   0  0  0  0  0  0  0  0  0  0  0  0
    1.1211   -0.6928   -0.0124 N   0  0  0  0  0  0  0  0  0  0  0  0
   -1.1211    0.6929   -0.0124 N   0  0  0  0  0  0  0  0  0  0  0  0
    1.2114    0.6490    0.5580 C   0  0  1  0  0  0  0  0  0  0  0  0
   -1.2114   -0.6491    0.5579 C   0  0  1  0  0  0  0  0  0  0  0  0
    2.5814    1.1428    0.1080 C   0  0  0  0  0  0  0  0  0  0  0  0
   -2.5815   -1.1427    0.1079 C   0  0  0  0  0  0  0  0  0  0  0  0
    2.4068   -1.1680   -0.4905 C   0  0  0  0  0  0  0  0  0  0  0  0
   -2.4068    1.1680   -0.4905 C   0  0  0  0  0  0  0  0  0  0  0  0
   -0.0387   -1.4532    0.0265 C   0  0  0  0  0  0  0  0  0  0  0  0
    0.0388    1.4532    0.0265 C   0  0  0  0  0  0  0  0  0  0  0  0
    3.4014   -0.1442    0.0387 C   0  0  0  0  0  0  0  0  0  0  0  0
   -3.4014    0.1443    0.0388 C   0  0  0  0  0  0  0  0  0  0  0  0
    1.1432    0.5690    1.6490 H   0  0  0  0  0  0  0  0  0  0  0  0
   -1.1432   -0.5690    1.6491 H   0  0  0  0  0  0  0  0  0  0  0  0
    3.0081    1.8749    0.7999 H   0  0  0  0  0  0  0  0  0  0  0  0
    2.5331    1.6062   -0.8852 H   0  0  0  0  0  0  0  0  0  0  0  0
   -2.5332   -1.6061   -0.8853 H   0  0  0  0  0  0  0  0  0  0  0  0
   -3.0081   -1.8749    0.7997 H   0  0  0  0  0  0  0  0  0  0  0  0
    2.3732   -1.1692   -1.5851 H   0  0  0  0  0  0  0  0  0  0  0  0
    2.6033   -2.1851   -0.1398 H   0  0  0  0  0  0  0  0  0  0  0  0
   -2.3731    1.1690   -1.5852 H   0  0  0  0  0  0  0  0  0  0  0  0
   -2.6033    2.1851   -0.1399 H   0  0  0  0  0  0  0  0  0  0  0  0
    4.2885   -0.0522   -0.5937 H   0  0  0  0  0  0  0  0  0  0  0  0
    3.7272   -0.4266    1.0472 H   0  0  0  0  0  0  0  0  0  0  0  0
   -4.2886    0.0524   -0.5935 H   0  0  0  0  0  0  0  0  0  0  0  0
   -3.7271    0.4267    1.0474 H   0  0  0  0  0  0  0  0  0  0  0  0
  1 11  2  0  0  0  0
  2 12  2  0  0  0  0
  3  5  1  0  0  0  0
  3  9  1  0  0  0  0
  3 11  1  0  0  0  0
  4  6  1  0  0  0  0
  4 10  1  0  0  0  0
  4 12  1  0  0  0  0
  5  7  1  0  0  0  0
  5 12  1  0  0  0  0
  5 15  1  0  0  0  0
  6  8  1  0  0  0  0
  6 11  1  0  0  0  0
  6 16  1  0  0  0  0
  7 13  1  0  0  0  0
  7 17  1  0  0  0  0
  7 18  1  0  0  0  0
  8 14  1  0  0  0  0
  8 19  1  0  0  0  0
  8 20  1  0  0  0  0
  9 13  1  0  0  0  0
  9 21  1  0  0  0  0
  9 22  1  0  0  0  0
 10 14  1  0  0  0  0
 10 23  1  0  0  0  0
 10 24  1  0  0  0  0
 13 25  1  0  0  0  0
 13 26  1  0  0  0  0
 14 27  1  0  0  0  0
 14 28  1  0  0  0  0
M  END
> <PUBCHEM_COMPOUND_CID>
736756

> <PUBCHEM_CONFORMER_RMSD>
0.4

> <PUBCHEM_CONFORMER_DIVERSEORDER>
1

> <PUBCHEM_MMFF94_PARTIAL_CHARGES>
10
1 -0.57
10 0.3
11 0.57
12 0.57
2 -0.57
3 -0.66
4 -0.66
5 0.36
6 0.36
9 0.3

> <PUBCHEM_EFFECTIVE_ROTOR_COUNT>
1.2

> <PUBCHEM_PHARMACOPHORE_FEATURES>
5
1 1 acceptor
1 2 acceptor
5 3 5 7 9 13 rings
5 4 6 8 10 14 rings
6 3 4 5 6 11 12 rings

> <PUBCHEM_HEAVY_ATOM_COUNT>
14

> <PUBCHEM_ATOM_DEF_STEREO_COUNT>
2

> <PUBCHEM_ATOM_UDEF_STEREO_COUNT>
0

> <PUBCHEM_BOND_DEF_STEREO_COUNT>
0

> <PUBCHEM_BOND_UDEF_STEREO_COUNT>
0

> <PUBCHEM_ISOTOPIC_ATOM_COUNT>
0

> <PUBCHEM_COMPONENT_COUNT>
1

> <PUBCHEM_CACTVS_TAUTO_COUNT>
1

> <PUBCHEM_CONFORMER_ID>
000B3DF400000001

> <PUBCHEM_MMFF94_ENERGY>
42.7133

> <PUBCHEM_FEATURE_SELFOVERLAP>
25.572

> <PUBCHEM_SHAPE_FINGERPRINT>
10219947 1 18411140242446000777
10608611 8 18410569595716415416
10967382 1 18410573967976921707
11132069 177 18411694387510756520
11206711 2 18122353380314199244
11471102 20 18411415077777935093
12032990 46 18410300206772206107
12423570 1 11973153431476444378
12524768 44 18413111684016780706
12897270 3 18338516313809399741
13140716 1 18338516343868883464
13897977 150 18338514136408784085
14251717 144 18412538838743546247
14325111 11 18411418422971837769
14614273 12 18044087956368539429
14993402 34 18410575131912994119
15219459 52 18263648535565306396
15775835 57 18409451388085171059
16945 1 18122624942242529331
17844478 74 18187094965867696617
193761 8 17762056944480157722
20201158 50 18411418380032740255
20511035 2 17841149166915934596
20588541 1 18411141303139483475
20645476 183 17604727662875361150
21501502 16 18050567648852318647
22802520 49 18127705819998049982
2334 1 18410855485897965618
23402539 116 18342444946523680910
23402655 69 18268695135978044085
23419403 2 15898893749212017187
23463225 33 18335417941792996074
23559900 14 18341895139887791870
25 1 18191296092534237005
2748010 2 18410855460128161855
353137 74 18192428576098501529
5084963 1 18129945692734903483
528886 8 18411976940645545339
53812653 166 18413105056665841977
63268167 104 18272091599508276563
7364860 26 18124597749587087912
8809292 202 18261399935528838419

> <PUBCHEM_SHAPE_MULTIPOLES>
266.41
4.68
2.23
0.68
0
0
0.02
0
-0.17
0
-0.23
0
0
0.32

> <PUBCHEM_SHAPE_SELFOVERLAP>
573.23

> <PUBCHEM_SHAPE_VOLUME>
148.3

> <PUBCHEM_COORDINATE_TYPE>
2
5
10

$$$$
