927723
  -OEChem-03112306413D

 26 26  0     1  0  0  0  0  0999 V2000
   -1.2594   -2.6531   -0.2614 O   0  0  0  0  0  0  0  0  0  0  0  0
   -1.1799    2.6732   -0.3594 O   0  0  0  0  0  0  0  0  0  0  0  0
   -0.1644    0.6603   -0.8263 N   0  0  0  0  0  0  0  0  0  0  0  0
   -2.1891   -0.6322    0.3237 N   0  0  0  0  0  0  0  0  0  0  0  0
    0.1381   -0.6984   -0.4038 C   0  0  1  0  0  0  0  0  0  0  0  0
    1.0579   -0.7418    0.8071 C   0  0  0  0  0  0  0  0  0  0  0  0
    2.4256   -0.0774    0.5674 C   0  0  0  0  0  0  0  0  0  0  0  0
   -1.1661   -1.4320   -0.1483 C   0  0  0  0  0  0  0  0  0  0  0  0
    3.1759   -0.6987   -0.6116 C   0  0  0  0  0  0  0  0  0  0  0  0
    2.2414    1.4234    0.3303 C   0  0  0  0  0  0  0  0  0  0  0  0
   -1.9712    0.7208    0.7886 C   0  0  0  0  0  0  0  0  0  0  0  0
   -1.1087    1.4559   -0.2061 C   0  0  0  0  0  0  0  0  0  0  0  0
    0.5981   -1.1894   -1.2682 H   0  0  0  0  0  0  0  0  0  0  0  0
    0.5846   -0.2788    1.6811 H   0  0  0  0  0  0  0  0  0  0  0  0
    1.2244   -1.7906    1.0874 H   0  0  0  0  0  0  0  0  0  0  0  0
    3.0235   -0.2165    1.4768 H   0  0  0  0  0  0  0  0  0  0  0  0
    0.4004    1.0753   -1.5598 H   0  0  0  0  0  0  0  0  0  0  0  0
    2.6994   -0.4859   -1.5735 H   0  0  0  0  0  0  0  0  0  0  0  0
    3.2496   -1.7850   -0.4965 H   0  0  0  0  0  0  0  0  0  0  0  0
    4.1954   -0.3001   -0.6606 H   0  0  0  0  0  0  0  0  0  0  0  0
    2.0741    1.6934   -0.7141 H   0  0  0  0  0  0  0  0  0  0  0  0
    3.1786    1.9293    0.5973 H   0  0  0  0  0  0  0  0  0  0  0  0
    1.4724    1.8601    0.9746 H   0  0  0  0  0  0  0  0  0  0  0  0
   -1.4872    0.6961    1.7678 H   0  0  0  0  0  0  0  0  0  0  0  0
   -2.9461    1.2098    0.8642 H   0  0  0  0  0  0  0  0  0  0  0  0
   -3.0741   -1.0775    0.5460 H   0  0  0  0  0  0  0  0  0  0  0  0
  1  8  2  0  0  0  0
  2 12  2  0  0  0  0
  3  5  1  0  0  0  0
  3 12  1  0  0  0  0
  3 17  1  0  0  0  0
  4  8  1  0  0  0  0
  4 11  1  0  0  0  0
  4 26  1  0  0  0  0
  5  6  1  0  0  0  0
  5  8  1  0  0  0  0
  5 13  1  0  0  0  0
  6  7  1  0  0  0  0
  6 14  1  0  0  0  0
  6 15  1  0  0  0  0
  7  9  1  0  0  0  0
  7 10  1  0  0  0  0
  7 16  1  0  0  0  0
  9 18  1  0  0  0  0
  9 19  1  0  0  0  0
  9 20  1  0  0  0  0
 10 21  1  0  0  0  0
 10 22  1  0  0  0  0
 10 23  1  0  0  0  0
 11 12  1  0  0  0  0
 11 24  1  0  0  0  0
 11 25  1  0  0  0  0
M  END
> <PUBCHEM_COMPOUND_CID>
927723

> <PUBCHEM_CONFORMER_RMSD>
0.6

> <PUBCHEM_CONFORMER_DIVERSEORDER>
1
2
3

> <PUBCHEM_MMFF94_PARTIAL_CHARGES>
10
1 -0.57
11 0.36
12 0.57
17 0.37
2 -0.57
26 0.37
3 -0.73
4 -0.73
5 0.36
8 0.57

> <PUBCHEM_EFFECTIVE_ROTOR_COUNT>
2.8

> <PUBCHEM_PHARMACOPHORE_FEATURES>
6
1 1 acceptor
1 2 acceptor
1 3 donor
1 4 donor
3 7 9 10 hydrophobe
6 3 4 5 8 11 12 rings

> <PUBCHEM_HEAVY_ATOM_COUNT>
12

> <PUBCHEM_ATOM_DEF_STEREO_COUNT>
1

> <PUBCHEM_ATOM_UDEF_STEREO_COUNT>
0

> <PUBCHEM_BOND_DEF_STEREO_COUNT>
0

> <PUBCHEM_BOND_UDEF_STEREO_COUNT>
0

> <PUBCHEM_ISOTOPIC_ATOM_COUNT>
0

> <PUBCHEM_COMPONENT_COUNT>
1

> <PUBCHEM_CACTVS_TAUTO_COUNT>
4

> <PUBCHEM_CONFORMER_ID>
000E27EB00000001

> <PUBCHEM_MMFF94_ENERGY>
39.3968

> <PUBCHEM_FEATURE_SELFOVERLAP>
30.454

> <PUBCHEM_SHAPE_FINGERPRINT>
100427 49 17980187913964256865
12524768 44 18268708479591878822
13024252 1 16225764107959018011
15775835 57 18262808345726148872
16945 1 18410006620124740882
18185500 45 18119527888717879475
19973954 147 18412823620776541840
20645464 45 18059278886691086402
20871998 184 18412271639942897103
21040471 1 18194109716745416800
21501502 16 18340771545897994854
23388829 49 17335897267130624599
23526114 1 16538193979118885615
23552423 10 18189052169505826190
23559900 14 18055916495057531862
241688 4 18265047118666583704
2748010 2 18195240242126477830
369184 2 11458416938458296178
5084963 1 17916575449600907856
54338 74 18265321979668003795
81228 2 18340476876391711779

> <PUBCHEM_SHAPE_MULTIPOLES>
225.25
3.72
2.32
0.86
2.47
0.14
0.05
0.02
0.19
-1.27
-0.32
0.11
0.03
0.15

> <PUBCHEM_SHAPE_SELFOVERLAP>
448.569

> <PUBCHEM_SHAPE_VOLUME>
132.4

> <PUBCHEM_COORDINATE_TYPE>
2
5
10

$$$$
