94340
  -OEChem-03112307223D

 40 40  0     1  0  0  0  0  0999 V2000
   -1.3096   -2.0127   -1.3938 O   0  0  0  0  0  0  0  0  0  0  0  0
    0.8027   -4.1478    0.4857 O   0  0  0  0  0  0  0  0  0  0  0  0
    2.6947   -3.6673   -0.6545 O   0  0  0  0  0  0  0  0  0  0  0  0
   -3.3897    0.2444   -1.7191 O   0  0  0  0  0  0  0  0  0  0  0  0
   -4.6870    1.4832   -0.3321 O   0  0  0  0  0  0  0  0  0  0  0  0
    2.1267    4.4935   -0.5349 O   0  0  0  0  0  0  0  0  0  0  0  0
   -0.0639   -1.6793    0.5381 N   0  0  0  0  0  0  0  0  0  0  0  0
   -2.4241    2.2292    1.0537 N   0  0  0  0  0  0  0  0  0  0  0  0
    1.2426   -1.8262   -0.0605 C   0  0  1  0  0  0  0  0  0  0  0  0
    2.2946   -1.0090    0.7005 C   0  0  0  0  0  0  0  0  0  0  0  0
   -2.4746   -0.2003    1.3551 C   0  0  0  0  0  0  0  0  0  0  0  0
   -2.4614   -1.5789    0.6913 C   0  0  0  0  0  0  0  0  0  0  0  0
   -2.4068    0.9485    0.3426 C   0  0  1  0  0  0  0  0  0  0  0  0
   -1.2406   -1.7866   -0.1888 C   0  0  0  0  0  0  0  0  0  0  0  0
    2.2494    0.4633    0.3696 C   0  0  0  0  0  0  0  0  0  0  0  0
    1.6601   -3.2884   -0.1154 C   0  0  0  0  0  0  0  0  0  0  0  0
    3.0174    0.9481   -0.6768 C   0  0  0  0  0  0  0  0  0  0  0  0
    1.4410    1.3028    1.1194 C   0  0  0  0  0  0  0  0  0  0  0  0
   -3.6145    0.9451   -0.5771 C   0  0  0  0  0  0  0  0  0  0  0  0
    2.9760    2.3087   -0.9816 C   0  0  0  0  0  0  0  0  0  0  0  0
    1.3997    2.6633    0.8144 C   0  0  0  0  0  0  0  0  0  0  0  0
    2.1672    3.1663   -0.2360 C   0  0  0  0  0  0  0  0  0  0  0  0
    1.1712   -1.4968   -1.1052 H   0  0  0  0  0  0  0  0  0  0  0  0
    3.3045   -1.3772    0.4739 H   0  0  0  0  0  0  0  0  0  0  0  0
    2.1837   -1.1479    1.7848 H   0  0  0  0  0  0  0  0  0  0  0  0
   -1.6437   -0.1147    2.0661 H   0  0  0  0  0  0  0  0  0  0  0  0
   -3.3958   -0.1250    1.9484 H   0  0  0  0  0  0  0  0  0  0  0  0
   -3.3613   -1.7371    0.0878 H   0  0  0  0  0  0  0  0  0  0  0  0
   -2.4610   -2.3575    1.4638 H   0  0  0  0  0  0  0  0  0  0  0  0
   -0.1135   -1.5984    1.5493 H   0  0  0  0  0  0  0  0  0  0  0  0
   -1.4956    0.9155   -0.2629 H   0  0  0  0  0  0  0  0  0  0  0  0
    3.6483    0.2877   -1.2647 H   0  0  0  0  0  0  0  0  0  0  0  0
    0.8412    0.9220    1.9408 H   0  0  0  0  0  0  0  0  0  0  0  0
   -1.6193    2.2813    1.6774 H   0  0  0  0  0  0  0  0  0  0  0  0
   -3.2448    2.2795    1.6571 H   0  0  0  0  0  0  0  0  0  0  0  0
    3.5781    2.6878   -1.8030 H   0  0  0  0  0  0  0  0  0  0  0  0
    0.7687    3.3268    1.3994 H   0  0  0  0  0  0  0  0  0  0  0  0
    1.1137   -5.0763    0.4283 H   0  0  0  0  0  0  0  0  0  0  0  0
   -4.1779    0.2343   -2.3029 H   0  0  0  0  0  0  0  0  0  0  0  0
    2.7178    4.6651   -1.2881 H   0  0  0  0  0  0  0  0  0  0  0  0
  1 14  2  0  0  0  0
  2 16  1  0  0  0  0
  2 38  1  0  0  0  0
  3 16  2  0  0  0  0
  4 19  1  0  0  0  0
  4 39  1  0  0  0  0
  5 19  2  0  0  0  0
  6 22  1  0  0  0  0
  6 40  1  0  0  0  0
  7  9  1  0  0  0  0
  7 14  1  0  0  0  0
  7 30  1  0  0  0  0
  8 13  1  0  0  0  0
  8 34  1  0  0  0  0
  8 35  1  0  0  0  0
  9 10  1  0  0  0  0
  9 16  1  0  0  0  0
  9 23  1  0  0  0  0
 10 15  1  0  0  0  0
 10 24  1  0  0  0  0
 10 25  1  0  0  0  0
 11 12  1  0  0  0  0
 11 13  1  0  0  0  0
 11 26  1  0  0  0  0
 11 27  1  0  0  0  0
 12 14  1  0  0  0  0
 12 28  1  0  0  0  0
 12 29  1  0  0  0  0
 13 19  1  0  0  0  0
 13 31  1  0  0  0  0
 15 17  2  0  0  0  0
 15 18  1  0  0  0  0
 17 20  1  0  0  0  0
 17 32  1  0  0  0  0
 18 21  2  0  0  0  0
 18 33  1  0  0  0  0
 20 22  2  0  0  0  0
 20 36  1  0  0  0  0
 21 22  1  0  0  0  0
 21 37  1  0  0  0  0
M  END
> <PUBCHEM_COMPOUND_CID>
94340

> <PUBCHEM_CONFORMER_RMSD>
0.8

> <PUBCHEM_CONFORMER_DIVERSEORDER>
2
119
99
40
11
152
121
84
165
73
35
111
51
190
61
194
76
176
130
81
139
43
198
131
63
29
52
54
135
69
151
163
30
125
155
95
206
164
23
178
62
83
134
8
149
181
133
37
59
116
26
154
173
67
31
87
172
160
47
97
96
89
50
192
64
171
203
17
72
166
126
41
107
90
195
33
197
100
10
129
120
117
22
137
15
122
32
156
58
115
118
177
123
24
150
106
201
71
184
55
175
27
5
79
167
39
57
16
140
187
144
124
42
142
108
45
36
92
162
141
145
109
13
98
128
94
105
93
46
44
110
66
157
77
185
34
14
70
182
49
53
4
191
138
68
75
6
193
20
179
104
48
202
82
91
180
9
85
65
188
56
78
1
159
183
205
147
168
3
101
112
19
146
174
38
21
74
113
207
28
196
25
103
102
153
186
143
114
148
80
60
170
200
18
204
12
127
86
189
199
158
88
161
169
136
132
7

> <PUBCHEM_MMFF94_PARTIAL_CHARGES>
31
1 -0.57
10 0.14
12 0.06
13 0.33
14 0.57
15 -0.14
16 0.66
17 -0.15
18 -0.15
19 0.66
2 -0.65
20 -0.15
21 -0.15
22 0.08
3 -0.57
30 0.37
32 0.15
33 0.15
34 0.36
35 0.36
36 0.15
37 0.15
38 0.5
39 0.5
4 -0.65
40 0.45
5 -0.57
6 -0.53
7 -0.73
8 -0.99
9 0.36

> <PUBCHEM_EFFECTIVE_ROTOR_COUNT>
9

> <PUBCHEM_PHARMACOPHORE_FEATURES>
12
1 1 acceptor
1 2 acceptor
1 3 acceptor
1 4 acceptor
1 5 acceptor
1 6 donor
1 7 donor
1 8 cation
1 8 donor
3 2 3 16 anion
3 4 5 19 anion
6 15 17 18 20 21 22 rings

> <PUBCHEM_HEAVY_ATOM_COUNT>
22

> <PUBCHEM_ATOM_DEF_STEREO_COUNT>
2

> <PUBCHEM_ATOM_UDEF_STEREO_COUNT>
0

> <PUBCHEM_BOND_DEF_STEREO_COUNT>
0

> <PUBCHEM_BOND_UDEF_STEREO_COUNT>
0

> <PUBCHEM_ISOTOPIC_ATOM_COUNT>
0

> <PUBCHEM_COMPONENT_COUNT>
1

> <PUBCHEM_CACTVS_TAUTO_COUNT>
4

> <PUBCHEM_CONFORMER_ID>
0001708400000002

> <PUBCHEM_MMFF94_ENERGY>
38.6009

> <PUBCHEM_FEATURE_SELFOVERLAP>
61.017

> <PUBCHEM_SHAPE_FINGERPRINT>
10498660 4 17760363696652569021
10670039 82 16389314607514344164
12173636 292 17977667837513364350
12553582 1 17832999247339135802
128993 33 18266746976512494984
138480 1 18193840344844173488
14790565 3 17834973236437042865
17134986 127 18337673125983076612
17357779 13 17549526428020292702
19930381 70 18409728478522855681
20465049 17 18268734799066988493
21141583 151 17695642027105691944
21524375 3 18119533386587599266
23557571 272 16754675698762929756
238 59 18338221752299557365
350125 39 18265057018692983226
474 4 18338230462867812273
81228 2 16826717899374636794

> <PUBCHEM_SHAPE_MULTIPOLES>
407.57
6.29
5.32
1.19
2.92
3.27
-0.11
-5.67
-1.4
-2.82
-0.45
0.45
-0.25
-0.06

> <PUBCHEM_SHAPE_SELFOVERLAP>
836.431

> <PUBCHEM_SHAPE_VOLUME>
232.6

> <PUBCHEM_COORDINATE_TYPE>
2
5
10

$$$$
