9861088
  -OEChem-03092322193D

 35 36  0     0  0  0  0  0  0999 V2000
   -6.5140   -1.3080   -0.5748 O   0  0  0  0  0  0  0  0  0  0  0  0
   -6.8355    1.3801    0.0556 O   0  0  0  0  0  0  0  0  0  0  0  0
    0.7957   -2.2010    0.2006 O   0  0  0  0  0  0  0  0  0  0  0  0
    4.6761    2.8491    0.3401 O   0  0  0  0  0  0  0  0  0  0  0  0
    2.7054    2.4408   -0.7164 O   0  0  0  0  0  0  0  0  0  0  0  0
    1.8023   -0.0883    0.0098 N   0  0  0  0  0  0  0  0  0  0  0  0
    3.1853   -0.3952    0.0001 C   0  0  0  0  0  0  0  0  0  0  0  0
    4.1258    0.6165   -0.1016 C   0  0  0  0  0  0  0  0  0  0  0  0
   -3.0583   -0.3421    0.1238 C   0  0  0  0  0  0  0  0  0  0  0  0
    3.5642   -1.7249    0.0948 C   0  0  0  0  0  0  0  0  0  0  0  0
   -4.1676   -1.1163   -0.2166 C   0  0  0  0  0  0  0  0  0  0  0  0
    5.4822    0.2905   -0.1091 C   0  0  0  0  0  0  0  0  0  0  0  0
   -1.7333   -0.9412    0.1489 C   0  0  0  0  0  0  0  0  0  0  0  0
   -3.2199    1.0069    0.4398 C   0  0  0  0  0  0  0  0  0  0  0  0
   -5.4382   -0.5416   -0.2408 C   0  0  0  0  0  0  0  0  0  0  0  0
    0.7422   -0.9805    0.1052 C   0  0  0  0  0  0  0  0  0  0  0  0
    4.9205   -2.0510    0.0873 C   0  0  0  0  0  0  0  0  0  0  0  0
    5.8794   -1.0433   -0.0147 C   0  0  0  0  0  0  0  0  0  0  0  0
   -0.5674   -0.2595    0.0808 C   0  0  0  0  0  0  0  0  0  0  0  0
   -5.5997    0.8073    0.0753 C   0  0  0  0  0  0  0  0  0  0  0  0
   -4.4905    1.5817    0.4155 C   0  0  0  0  0  0  0  0  0  0  0  0
    3.7452    2.0199   -0.2035 C   0  0  0  0  0  0  0  0  0  0  0  0
    1.5766    0.9005   -0.0591 H   0  0  0  0  0  0  0  0  0  0  0  0
    2.8930   -2.5658    0.1763 H   0  0  0  0  0  0  0  0  0  0  0  0
   -4.0544   -2.1691   -0.4666 H   0  0  0  0  0  0  0  0  0  0  0  0
    6.2541    1.0501   -0.2013 H   0  0  0  0  0  0  0  0  0  0  0  0
   -1.7140   -2.0267    0.2185 H   0  0  0  0  0  0  0  0  0  0  0  0
   -2.3896    1.6436    0.7307 H   0  0  0  0  0  0  0  0  0  0  0  0
    5.2314   -3.0892    0.1599 H   0  0  0  0  0  0  0  0  0  0  0  0
    6.9352   -1.2978   -0.0237 H   0  0  0  0  0  0  0  0  0  0  0  0
   -0.5356    0.8200   -0.0167 H   0  0  0  0  0  0  0  0  0  0  0  0
   -4.6032    2.6327    0.6682 H   0  0  0  0  0  0  0  0  0  0  0  0
   -7.3099   -0.7493   -0.5403 H   0  0  0  0  0  0  0  0  0  0  0  0
   -6.7540    2.3177    0.3006 H   0  0  0  0  0  0  0  0  0  0  0  0
    4.4126    3.7913    0.2678 H   0  0  0  0  0  0  0  0  0  0  0  0
  1 15  1  0  0  0  0
  1 33  1  0  0  0  0
  2 20  1  0  0  0  0
  2 34  1  0  0  0  0
  3 16  2  0  0  0  0
  4 22  1  0  0  0  0
  4 35  1  0  0  0  0
  5 22  2  0  0  0  0
  6  7  1  0  0  0  0
  6 16  1  0  0  0  0
  6 23  1  0  0  0  0
  7  8  1  0  0  0  0
  7 10  2  0  0  0  0
  8 12  2  0  0  0  0
  8 22  1  0  0  0  0
  9 11  2  0  0  0  0
  9 13  1  0  0  0  0
  9 14  1  0  0  0  0
 10 17  1  0  0  0  0
 10 24  1  0  0  0  0
 11 15  1  0  0  0  0
 11 25  1  0  0  0  0
 12 18  1  0  0  0  0
 12 26  1  0  0  0  0
 13 19  2  0  0  0  0
 13 27  1  0  0  0  0
 14 21  2  0  0  0  0
 14 28  1  0  0  0  0
 15 20  2  0  0  0  0
 16 19  1  0  0  0  0
 17 18  2  0  0  0  0
 17 29  1  0  0  0  0
 18 30  1  0  0  0  0
 19 31  1  0  0  0  0
 20 21  1  0  0  0  0
 21 32  1  0  0  0  0
M  END
> <PUBCHEM_COMPOUND_CID>
9861088

> <PUBCHEM_CONFORMER_RMSD>
0.8

> <PUBCHEM_CONFORMER_DIVERSEORDER>
1
15
9
6
13
7
14
2
3
12
16
5
10
11
8
4
17

> <PUBCHEM_MMFF94_PARTIAL_CHARGES>
35
1 -0.53
10 -0.15
11 -0.15
12 -0.15
13 -0.18
14 -0.15
15 0.08
16 0.62
17 -0.15
18 -0.15
19 -0.14
2 -0.53
20 0.08
21 -0.15
22 0.63
23 0.37
24 0.15
25 0.15
26 0.15
27 0.15
28 0.15
29 0.15
3 -0.57
30 0.15
31 0.15
32 0.15
33 0.45
34 0.45
35 0.5
4 -0.65
5 -0.57
6 -0.55
7 0.12
8 0.09
9 0.03

> <PUBCHEM_EFFECTIVE_ROTOR_COUNT>
5

> <PUBCHEM_PHARMACOPHORE_FEATURES>
9
1 1 donor
1 2 donor
1 3 acceptor
1 4 acceptor
1 5 acceptor
1 6 donor
3 4 5 22 anion
6 7 8 10 12 17 18 rings
6 9 11 14 15 20 21 rings

> <PUBCHEM_HEAVY_ATOM_COUNT>
22

> <PUBCHEM_ATOM_DEF_STEREO_COUNT>
0

> <PUBCHEM_ATOM_UDEF_STEREO_COUNT>
0

> <PUBCHEM_BOND_DEF_STEREO_COUNT>
1

> <PUBCHEM_BOND_UDEF_STEREO_COUNT>
0

> <PUBCHEM_ISOTOPIC_ATOM_COUNT>
0

> <PUBCHEM_COMPONENT_COUNT>
1

> <PUBCHEM_CACTVS_TAUTO_COUNT>
30

> <PUBCHEM_CONFORMER_ID>
009677E000000001

> <PUBCHEM_MMFF94_ENERGY>
70.4041

> <PUBCHEM_FEATURE_SELFOVERLAP>
45.733

> <PUBCHEM_SHAPE_FINGERPRINT>
10411042 1 17977665304580840762
10595046 47 18342174501001887159
10688039 33 17677051244496510732
10763959 59 17749104478514788469
11045977 3 17967258614946674947
11089746 13 18333450923896385570
12107183 9 17619349805772073963
12166972 35 18412829092153862296
12236239 1 18272087193025012815
12403259 415 17822283570138867549
12616971 3 18202557389061961799
13167372 99 18341614780695281905
13533116 47 18413108381361113864
13785724 45 17836367043308943934
14251764 18 18260828194526246834
14464042 87 18060144206389635664
14528608 73 18411138047644021911
14933364 13 18409169904950945067
15183329 4 18413111636550607536
15196674 1 18411138047707442305
17834072 33 18413669119290339711
17844677 252 18411426098363219363
18681886 176 18272364266013907162
20028762 73 18271806774890254350
20157964 124 18411982481433094258
20281389 69 18334012762144353953
21033648 144 18260821652610580094
21033648 29 16950551186525833687
21315763 129 18411136896466017165
21315763 28 18411417306839847791
21315764 268 18408317795945162357
21709351 56 18411132507157283463
221357 26 18335137566576008540
23402539 116 18343297055398309711
23536379 177 18413107234393959835
23559900 14 18412539912100456435
245318 6 17534640492084629853
29717793 49 17988928846969434934
3004659 81 18412262822622705152
335352 9 18409451393524980782
34797466 226 17703801356976636845
351380 180 18408887330119741264
4073 2 18040722514748730490
4214541 1 18411138022048252395
4325135 7 18343581850479692311
5104073 3 18333452057862658955
513532 50 18201732769012191004
542803 24 18407758127731422051
54446538 1 18412824685511589361
59755656 520 17676487246428858643
67856867 119 18413105082441017753
7495541 125 17561078141884060659
9971528 1 17967816058999916708

> <PUBCHEM_SHAPE_MULTIPOLES>
418.42
17.92
2.4
0.66
13.14
1.06
0
1.66
0.81
-2.57
0.02
0.08
0.04
-0.69

> <PUBCHEM_SHAPE_SELFOVERLAP>
903.994

> <PUBCHEM_SHAPE_VOLUME>
227.4

> <PUBCHEM_COORDINATE_TYPE>
2
5
10

$$$$
