373677
  -OEChem-09052322552D

 65 65  0     0  0  0  0  0  0999 V2000
    3.7320    0.5179    0.0000 O   0  0  0  0  0  0  0  0  0  0  0  0
    7.1962    0.5179    0.0000 O   0  0  0  0  0  0  0  0  0  0  0  0
    5.4641   -2.4820    0.0000 O   0  0  0  0  0  0  0  0  0  0  0  0
    8.0622   -0.9821    0.0000 O   0  0  0  0  0  0  0  0  0  0  0  0
    5.4641    0.5179    0.0000 C   0  0  0  0  0  0  0  0  0  0  0  0
    5.9641    1.3840    0.0000 C   0  0  0  0  0  0  0  0  0  0  0  0
    4.9641    1.3840    0.0000 C   0  0  0  0  0  0  0  0  0  0  0  0
    4.5981    0.0179    0.0000 C   0  0  0  0  0  0  0  0  0  0  0  0
    6.3301    0.0179    0.0000 C   0  0  0  0  0  0  0  0  0  0  0  0
    4.5981   -0.9821    0.0000 C   0  0  0  0  0  0  0  0  0  0  0  0
    6.3301   -0.9821    0.0000 C   0  0  0  0  0  0  0  0  0  0  0  0
    5.4641   -1.4820    0.0000 C   0  0  0  0  0  0  0  0  0  0  0  0
    5.4641    2.2500    0.0000 C   0  0  0  0  0  0  0  0  0  0  0  0
    3.9641    1.3840    0.0000 C   0  0  0  0  0  0  0  0  0  0  0  0
    3.7320   -1.4820    0.0000 C   0  0  0  0  0  0  0  0  0  0  0  0
    7.1962   -1.4820    0.0000 C   0  0  0  0  0  0  0  0  0  0  0  0
    7.1962   -2.4820    0.0000 C   0  0  0  0  0  0  0  0  0  0  0  0
    5.9641    3.1160    0.0000 C   0  0  0  0  0  0  0  0  0  0  0  0
    3.4641    2.2500    0.0000 C   0  0  0  0  0  0  0  0  0  0  0  0
    3.7320   -2.4820    0.0000 C   0  0  0  0  0  0  0  0  0  0  0  0
    8.0622   -2.9820    0.0000 C   0  0  0  0  0  0  0  0  0  0  0  0
    6.3301   -2.9820    0.0000 C   0  0  0  0  0  0  0  0  0  0  0  0
    5.4641    3.9820    0.0000 C   0  0  0  0  0  0  0  0  0  0  0  0
    6.9641    3.1160    0.0000 C   0  0  0  0  0  0  0  0  0  0  0  0
    2.4641    2.2500    0.0000 C   0  0  0  0  0  0  0  0  0  0  0  0
    3.9641    3.1160    0.0000 C   0  0  0  0  0  0  0  0  0  0  0  0
    2.8660   -2.9820    0.0000 C   0  0  0  0  0  0  0  0  0  0  0  0
    2.8660   -3.9820    0.0000 C   0  0  0  0  0  0  0  0  0  0  0  0
    2.0000   -2.4820    0.0000 C   0  0  0  0  0  0  0  0  0  0  0  0
    6.4390    0.9854    0.0000 H   0  0  0  0  0  0  0  0  0  0  0  0
    6.4390    1.7825    0.0000 H   0  0  0  0  0  0  0  0  0  0  0  0
    5.5467    1.5960    0.0000 H   0  0  0  0  0  0  0  0  0  0  0  0
    4.8564    1.9946    0.0000 H   0  0  0  0  0  0  0  0  0  0  0  0
    4.8441    2.2500    0.0000 H   0  0  0  0  0  0  0  0  0  0  0  0
    3.6541    0.8470    0.0000 H   0  0  0  0  0  0  0  0  0  0  0  0
    3.5200   -0.8994    0.0000 H   0  0  0  0  0  0  0  0  0  0  0  0
    3.1215   -1.5897    0.0000 H   0  0  0  0  0  0  0  0  0  0  0  0
    6.6592   -2.1720    0.0000 H   0  0  0  0  0  0  0  0  0  0  0  0
    3.1951    0.2079    0.0000 H   0  0  0  0  0  0  0  0  0  0  0  0
    4.2690   -2.7920    0.0000 H   0  0  0  0  0  0  0  0  0  0  0  0
    4.9272   -2.7920    0.0000 H   0  0  0  0  0  0  0  0  0  0  0  0
    7.7522   -3.5190    0.0000 H   0  0  0  0  0  0  0  0  0  0  0  0
    8.5991   -3.2920    0.0000 H   0  0  0  0  0  0  0  0  0  0  0  0
    8.3722   -2.4451    0.0000 H   0  0  0  0  0  0  0  0  0  0  0  0
    6.0201   -2.4451    0.0000 H   0  0  0  0  0  0  0  0  0  0  0  0
    5.7932   -3.2920    0.0000 H   0  0  0  0  0  0  0  0  0  0  0  0
    6.6401   -3.5190    0.0000 H   0  0  0  0  0  0  0  0  0  0  0  0
    6.0010    4.2920    0.0000 H   0  0  0  0  0  0  0  0  0  0  0  0
    5.1541    4.5190    0.0000 H   0  0  0  0  0  0  0  0  0  0  0  0
    4.9272    3.6720    0.0000 H   0  0  0  0  0  0  0  0  0  0  0  0
    6.9641    2.4960    0.0000 H   0  0  0  0  0  0  0  0  0  0  0  0
    7.5841    3.1160    0.0000 H   0  0  0  0  0  0  0  0  0  0  0  0
    6.9641    3.7360    0.0000 H   0  0  0  0  0  0  0  0  0  0  0  0
    2.4641    2.8700    0.0000 H   0  0  0  0  0  0  0  0  0  0  0  0
    1.8441    2.2500    0.0000 H   0  0  0  0  0  0  0  0  0  0  0  0
    2.4641    1.6300    0.0000 H   0  0  0  0  0  0  0  0  0  0  0  0
    4.5010    2.8060    0.0000 H   0  0  0  0  0  0  0  0  0  0  0  0
    4.2741    3.6530    0.0000 H   0  0  0  0  0  0  0  0  0  0  0  0
    3.4272    3.4260    0.0000 H   0  0  0  0  0  0  0  0  0  0  0  0
    2.2460   -3.9820    0.0000 H   0  0  0  0  0  0  0  0  0  0  0  0
    2.8660   -4.6020    0.0000 H   0  0  0  0  0  0  0  0  0  0  0  0
    3.4860   -3.9820    0.0000 H   0  0  0  0  0  0  0  0  0  0  0  0
    2.3100   -1.9451    0.0000 H   0  0  0  0  0  0  0  0  0  0  0  0
    1.4631   -2.1720    0.0000 H   0  0  0  0  0  0  0  0  0  0  0  0
    1.6900   -3.0190    0.0000 H   0  0  0  0  0  0  0  0  0  0  0  0
  1  8  1  0  0  0  0
  1 39  1  0  0  0  0
  2  9  2  0  0  0  0
  3 12  1  0  0  0  0
  3 41  1  0  0  0  0
  4 16  2  0  0  0  0
  5  6  1  0  0  0  0
  5  7  1  0  0  0  0
  5  8  1  0  0  0  0
  5  9  1  0  0  0  0
  6 13  1  0  0  0  0
  6 30  1  0  0  0  0
  6 31  1  0  0  0  0
  7 14  1  0  0  0  0
  7 32  1  0  0  0  0
  7 33  1  0  0  0  0
  8 10  2  0  0  0  0
  9 11  1  0  0  0  0
 10 12  1  0  0  0  0
 10 15  1  0  0  0  0
 11 12  2  0  0  0  0
 11 16  1  0  0  0  0
 13 18  2  0  0  0  0
 13 34  1  0  0  0  0
 14 19  2  0  0  0  0
 14 35  1  0  0  0  0
 15 20  1  0  0  0  0
 15 36  1  0  0  0  0
 15 37  1  0  0  0  0
 16 17  1  0  0  0  0
 17 21  1  0  0  0  0
 17 22  1  0  0  0  0
 17 38  1  0  0  0  0
 18 23  1  0  0  0  0
 18 24  1  0  0  0  0
 19 25  1  0  0  0  0
 19 26  1  0  0  0  0
 20 27  2  0  0  0  0
 20 40  1  0  0  0  0
 21 42  1  0  0  0  0
 21 43  1  0  0  0  0
 21 44  1  0  0  0  0
 22 45  1  0  0  0  0
 22 46  1  0  0  0  0
 22 47  1  0  0  0  0
 23 48  1  0  0  0  0
 23 49  1  0  0  0  0
 23 50  1  0  0  0  0
 24 51  1  0  0  0  0
 24 52  1  0  0  0  0
 24 53  1  0  0  0  0
 25 54  1  0  0  0  0
 25 55  1  0  0  0  0
 25 56  1  0  0  0  0
 26 57  1  0  0  0  0
 26 58  1  0  0  0  0
 26 59  1  0  0  0  0
 27 28  1  0  0  0  0
 27 29  1  0  0  0  0
 28 60  1  0  0  0  0
 28 61  1  0  0  0  0
 28 62  1  0  0  0  0
 29 63  1  0  0  0  0
 29 64  1  0  0  0  0
 29 65  1  0  0  0  0
M  END
> <PUBCHEM_COMPOUND_CID>
373677

> <PUBCHEM_COMPOUND_CANONICALIZED>
1

> <PUBCHEM_CACTVS_COMPLEXITY>
797

> <PUBCHEM_CACTVS_HBOND_ACCEPTOR>
4

> <PUBCHEM_CACTVS_HBOND_DONOR>
2

> <PUBCHEM_CACTVS_ROTATABLE_BOND>
8

> <PUBCHEM_CACTVS_SUBSKEYS>
AAADcfB4OAAAAAAAAAAAAAAAAAAAAAAAAAAgAAAAAAAAAAAAAAAAGgAACAAADwSAgAACAAAAAgCIAqBSAAAAAAAgIAAACAEAAEgIBBYIAQAAUAAEoAAIkQOIzOAPAAAAAAAAAAAAAAAAAAAAAAAAAAAAAA==

> <PUBCHEM_IUPAC_OPENEYE_NAME>
3,5-dihydroxy-4,6,6-tris(3-methylbut-2-enyl)-2-(2-methylpropanoyl)cyclohexa-2,4-dien-1-one

> <PUBCHEM_IUPAC_CAS_NAME>
3,5-dihydroxy-4,6,6-tris(3-methylbut-2-enyl)-2-(2-methyl-1-oxopropyl)-1-cyclohexa-2,4-dienone

> <PUBCHEM_IUPAC_NAME_MARKUP>
3,5-dihydroxy-4,6,6-tris(3-methylbut-2-enyl)-2-(2-methylpropanoyl)cyclohexa-2,4-dien-1-one

> <PUBCHEM_IUPAC_NAME>
3,5-dihydroxy-4,6,6-tris(3-methylbut-2-enyl)-2-(2-methylpropanoyl)cyclohexa-2,4-dien-1-one

> <PUBCHEM_IUPAC_SYSTEMATIC_NAME>
4,6,6-tris(3-methylbut-2-enyl)-2-(2-methylpropanoyl)-3,5-bis(oxidanyl)cyclohexa-2,4-dien-1-one

> <PUBCHEM_IUPAC_TRADITIONAL_NAME>
3,5-dihydroxy-2-isobutyryl-4,6,6-tris(3-methylbut-2-enyl)cyclohexa-2,4-dien-1-one

> <PUBCHEM_IUPAC_INCHI>
InChI=1S/C25H36O4/c1-15(2)9-10-19-22(27)20(21(26)18(7)8)24(29)25(23(19)28,13-11-16(3)4)14-12-17(5)6/h9,11-12,18,27-28H,10,13-14H2,1-8H3

> <PUBCHEM_IUPAC_INCHIKEY>
UNCDMWKTFLUPHZ-UHFFFAOYSA-N

> <PUBCHEM_XLOGP3_AA>
6.5

> <PUBCHEM_EXACT_MASS>
400.26135963

> <PUBCHEM_MOLECULAR_FORMULA>
C25H36O4

> <PUBCHEM_MOLECULAR_WEIGHT>
400.5

> <PUBCHEM_OPENEYE_CAN_SMILES>
CC(C)C(=O)C1=C(C(=C(C(C1=O)(CC=C(C)C)CC=C(C)C)O)CC=C(C)C)O

> <PUBCHEM_OPENEYE_ISO_SMILES>
CC(C)C(=O)C1=C(C(=C(C(C1=O)(CC=C(C)C)CC=C(C)C)O)CC=C(C)C)O

> <PUBCHEM_CACTVS_TPSA>
74.6

> <PUBCHEM_MONOISOTOPIC_WEIGHT>
400.26135963

> <PUBCHEM_TOTAL_CHARGE>
0

> <PUBCHEM_HEAVY_ATOM_COUNT>
29

> <PUBCHEM_ATOM_DEF_STEREO_COUNT>
0

> <PUBCHEM_ATOM_UDEF_STEREO_COUNT>
0

> <PUBCHEM_BOND_DEF_STEREO_COUNT>
0

> <PUBCHEM_BOND_UDEF_STEREO_COUNT>
0

> <PUBCHEM_ISOTOPIC_ATOM_COUNT>
0

> <PUBCHEM_COMPONENT_COUNT>
1

> <PUBCHEM_CACTVS_TAUTO_COUNT>
19

> <PUBCHEM_COORDINATE_TYPE>
1
5
255

$$$$
