92253768
  -OEChem-09052323052D

 56 56  0     1  0  0  0  0  0999 V2000
    3.6330    1.1739    0.0000 O   0  0  0  0  0  0  0  0  0  0  0  0
    2.4608    0.0861    0.0000 O   0  0  0  0  0  0  0  0  0  0  0  0
    5.3086   -1.9830    0.0000 O   0  0  0  0  0  0  0  0  0  0  0  0
    5.8031    1.0694    0.0000 O   0  0  0  0  0  0  0  0  0  0  0  0
    2.1385   -1.8784    0.0000 O   0  0  0  0  0  0  0  0  0  0  0  0
    5.0298   -0.2229    0.0000 C   0  0  1  0  0  0  0  0  0  0  0  0
    4.2208    0.3649    0.0000 C   0  0  2  0  0  0  0  0  0  0  0  0
    3.4118   -0.2229    0.0000 C   0  0  0  0  0  0  0  0  0  0  0  0
    4.7208   -1.1739    0.0000 C   0  0  0  0  0  0  0  0  0  0  0  0
    3.7208   -1.1739    0.0000 C   0  0  0  0  0  0  0  0  0  0  0  0
    5.9809    0.0861    0.0000 C   0  0  0  0  0  0  0  0  0  0  0  0
    4.8086    1.1739    0.0000 C   0  0  0  0  0  0  0  0  0  0  0  0
    3.1330   -1.9830    0.0000 C   0  0  0  0  0  0  0  0  0  0  0  0
    3.5398   -2.8965    0.0000 C   0  0  2  0  0  0  0  0  0  0  0  0
    4.4019    2.0875    0.0000 C   0  0  0  0  0  0  0  0  0  0  0  0
    6.7240   -0.5830    0.0000 C   0  0  0  0  0  0  0  0  0  0  0  0
    2.9520   -3.7055    0.0000 C   0  0  0  0  0  0  0  0  0  0  0  0
    4.5343   -3.0010    0.0000 C   0  0  0  0  0  0  0  0  0  0  0  0
    7.6751   -0.2740    0.0000 C   0  0  0  0  0  0  0  0  0  0  0  0
    4.9897    2.8965    0.0000 C   0  0  0  0  0  0  0  0  0  0  0  0
    3.3587   -4.6190    0.0000 C   0  0  0  0  0  0  0  0  0  0  0  0
    8.4182   -0.9431    0.0000 C   0  0  0  0  0  0  0  0  0  0  0  0
    7.8830    0.7042    0.0000 C   0  0  0  0  0  0  0  0  0  0  0  0
    4.5829    3.8100    0.0000 C   0  0  0  0  0  0  0  0  0  0  0  0
    5.1707    4.6190    0.0000 C   0  0  0  0  0  0  0  0  0  0  0  0
    3.5884    3.9146    0.0000 C   0  0  0  0  0  0  0  0  0  0  0  0
    5.4682   -0.6613    0.0000 H   0  0  0  0  0  0  0  0  0  0  0  0
    6.4695    0.4679    0.0000 H   0  0  0  0  0  0  0  0  0  0  0  0
    5.6898    0.6336    0.0000 H   0  0  0  0  0  0  0  0  0  0  0  0
    3.7920   -3.4629    0.0000 H   0  0  0  0  0  0  0  0  0  0  0  0
    3.0164    1.1091    0.0000 H   0  0  0  0  0  0  0  0  0  0  0  0
    3.9712    2.5335    0.0000 H   0  0  0  0  0  0  0  0  0  0  0  0
    3.8879    1.7408    0.0000 H   0  0  0  0  0  0  0  0  0  0  0  0
    6.5951   -1.1894    0.0000 H   0  0  0  0  0  0  0  0  0  0  0  0
    2.5213   -3.2595    0.0000 H   0  0  0  0  0  0  0  0  0  0  0  0
    2.4380   -4.0522    0.0000 H   0  0  0  0  0  0  0  0  0  0  0  0
    2.0000   -0.3287    0.0000 H   0  0  0  0  0  0  0  0  0  0  0  0
    4.4695   -3.6176    0.0000 H   0  0  0  0  0  0  0  0  0  0  0  0
    5.1509   -3.0658    0.0000 H   0  0  0  0  0  0  0  0  0  0  0  0
    4.5991   -2.3844    0.0000 H   0  0  0  0  0  0  0  0  0  0  0  0
    5.6063    2.8317    0.0000 H   0  0  0  0  0  0  0  0  0  0  0  0
    2.7923   -4.8712    0.0000 H   0  0  0  0  0  0  0  0  0  0  0  0
    3.6109   -5.1854    0.0000 H   0  0  0  0  0  0  0  0  0  0  0  0
    3.9251   -4.3669    0.0000 H   0  0  0  0  0  0  0  0  0  0  0  0
    8.0034   -1.4038    0.0000 H   0  0  0  0  0  0  0  0  0  0  0  0
    8.8790   -1.3580    0.0000 H   0  0  0  0  0  0  0  0  0  0  0  0
    8.8331   -0.4824    0.0000 H   0  0  0  0  0  0  0  0  0  0  0  0
    8.4895    0.5753    0.0000 H   0  0  0  0  0  0  0  0  0  0  0  0
    8.0119    1.3106    0.0000 H   0  0  0  0  0  0  0  0  0  0  0  0
    7.2766    0.8331    0.0000 H   0  0  0  0  0  0  0  0  0  0  0  0
    5.6723    4.2546    0.0000 H   0  0  0  0  0  0  0  0  0  0  0  0
    5.5351    5.1207    0.0000 H   0  0  0  0  0  0  0  0  0  0  0  0
    4.6691    4.9835    0.0000 H   0  0  0  0  0  0  0  0  0  0  0  0
    3.6532    4.5312    0.0000 H   0  0  0  0  0  0  0  0  0  0  0  0
    2.9718    3.9794    0.0000 H   0  0  0  0  0  0  0  0  0  0  0  0
    3.5236    3.2980    0.0000 H   0  0  0  0  0  0  0  0  0  0  0  0
  7  1  1  6  0  0  0
  1 31  1  0  0  0  0
  2  8  1  0  0  0  0
  2 37  1  0  0  0  0
  3  9  2  0  0  0  0
  4 12  2  0  0  0  0
  5 13  2  0  0  0  0
  6  7  1  0  0  0  0
  6  9  1  0  0  0  0
  6 11  1  6  0  0  0
  6 27  1  0  0  0  0
  7  8  1  0  0  0  0
  7 12  1  0  0  0  0
  8 10  2  0  0  0  0
  9 10  1  0  0  0  0
 10 13  1  0  0  0  0
 11 16  1  0  0  0  0
 11 28  1  0  0  0  0
 11 29  1  0  0  0  0
 12 15  1  0  0  0  0
 13 14  1  0  0  0  0
 14 17  1  0  0  0  0
 14 18  1  1  0  0  0
 14 30  1  0  0  0  0
 15 20  1  0  0  0  0
 15 32  1  0  0  0  0
 15 33  1  0  0  0  0
 16 19  2  0  0  0  0
 16 34  1  0  0  0  0
 17 21  1  0  0  0  0
 17 35  1  0  0  0  0
 17 36  1  0  0  0  0
 18 38  1  0  0  0  0
 18 39  1  0  0  0  0
 18 40  1  0  0  0  0
 19 22  1  0  0  0  0
 19 23  1  0  0  0  0
 20 24  2  0  0  0  0
 20 41  1  0  0  0  0
 21 42  1  0  0  0  0
 21 43  1  0  0  0  0
 21 44  1  0  0  0  0
 22 45  1  0  0  0  0
 22 46  1  0  0  0  0
 22 47  1  0  0  0  0
 23 48  1  0  0  0  0
 23 49  1  0  0  0  0
 23 50  1  0  0  0  0
 24 25  1  0  0  0  0
 24 26  1  0  0  0  0
 25 51  1  0  0  0  0
 25 52  1  0  0  0  0
 25 53  1  0  0  0  0
 26 54  1  0  0  0  0
 26 55  1  0  0  0  0
 26 56  1  0  0  0  0
M  END
> <PUBCHEM_COMPOUND_CID>
92253768

> <PUBCHEM_COMPOUND_CANONICALIZED>
1

> <PUBCHEM_CACTVS_COMPLEXITY>
687

> <PUBCHEM_CACTVS_HBOND_ACCEPTOR>
5

> <PUBCHEM_CACTVS_HBOND_DONOR>
2

> <PUBCHEM_CACTVS_ROTATABLE_BOND>
8

> <PUBCHEM_CACTVS_SUBSKEYS>
AAADceB4OAAAAAAAAAAAAAAAAAAAAQAAAAAAAAAAAAAAAAAAAAAAGgAACAAADUSAgAACAAAAAgCIAqBSAAIAAAAgIAAACAFAAEgBBBYIAQAAUAAEoAAJEQOLzODOgAAAAAAAAAAAAAAAAAAAAAAAAAAAAA==

> <PUBCHEM_IUPAC_OPENEYE_NAME>
(4R,5S)-3,4-dihydroxy-2-[(2S)-2-methylbutanoyl]-5-(3-methylbut-2-enyl)-4-(4-methylpent-3-enoyl)cyclopent-2-en-1-one

> <PUBCHEM_IUPAC_CAS_NAME>
(4R,5S)-3,4-dihydroxy-5-(3-methylbut-2-enyl)-2-[(2S)-2-methyl-1-oxobutyl]-4-(4-methyl-1-oxopent-3-enyl)-1-cyclopent-2-enone

> <PUBCHEM_IUPAC_NAME_MARKUP>
(4<I>R</I>,5<I>S</I>)-3,4-dihydroxy-2-[(2<I>S</I>)-2-methylbutanoyl]-5-(3-methylbut-2-enyl)-4-(4-methylpent-3-enoyl)cyclopent-2-en-1-one

> <PUBCHEM_IUPAC_NAME>
(4R,5S)-3,4-dihydroxy-2-[(2S)-2-methylbutanoyl]-5-(3-methylbut-2-enyl)-4-(4-methylpent-3-enoyl)cyclopent-2-en-1-one

> <PUBCHEM_IUPAC_SYSTEMATIC_NAME>
(4R,5S)-2-[(2S)-2-methylbutanoyl]-5-(3-methylbut-2-enyl)-4-(4-methylpent-3-enoyl)-3,4-bis(oxidanyl)cyclopent-2-en-1-one

> <PUBCHEM_IUPAC_TRADITIONAL_NAME>
(4R,5S)-3,4-dihydroxy-2-[(2S)-2-methylbutanoyl]-5-(3-methylbut-2-enyl)-4-(4-methylpent-3-enoyl)cyclopent-2-en-1-one

> <PUBCHEM_IUPAC_INCHI>
InChI=1S/C21H30O5/c1-7-14(6)18(23)17-19(24)15(10-8-12(2)3)21(26,20(17)25)16(22)11-9-13(4)5/h8-9,14-15,25-26H,7,10-11H2,1-6H3/t14-,15+,21-/m0/s1

> <PUBCHEM_IUPAC_INCHIKEY>
QHRQNLXYMFCGPB-ZSDSOXJFSA-N

> <PUBCHEM_XLOGP3_AA>
4

> <PUBCHEM_EXACT_MASS>
362.20932405

> <PUBCHEM_MOLECULAR_FORMULA>
C21H30O5

> <PUBCHEM_MOLECULAR_WEIGHT>
362.5

> <PUBCHEM_OPENEYE_CAN_SMILES>
CCC(C)C(=O)C1=C(C(C(C1=O)CC=C(C)C)(C(=O)CC=C(C)C)O)O

> <PUBCHEM_OPENEYE_ISO_SMILES>
CC[C@H](C)C(=O)C1=C([C@]([C@@H](C1=O)CC=C(C)C)(C(=O)CC=C(C)C)O)O

> <PUBCHEM_CACTVS_TPSA>
91.7

> <PUBCHEM_MONOISOTOPIC_WEIGHT>
362.20932405

> <PUBCHEM_TOTAL_CHARGE>
0

> <PUBCHEM_HEAVY_ATOM_COUNT>
26

> <PUBCHEM_ATOM_DEF_STEREO_COUNT>
3

> <PUBCHEM_ATOM_UDEF_STEREO_COUNT>
0

> <PUBCHEM_BOND_DEF_STEREO_COUNT>
0

> <PUBCHEM_BOND_UDEF_STEREO_COUNT>
0

> <PUBCHEM_ISOTOPIC_ATOM_COUNT>
0

> <PUBCHEM_COMPONENT_COUNT>
1

> <PUBCHEM_CACTVS_TAUTO_COUNT>
-1

> <PUBCHEM_COORDINATE_TYPE>
1
5
255

> <PUBCHEM_BONDANNOTATIONS>
7  1  6
14  18  5
6  11  6

$$$$
