656678
  -OEChem-09052323152D

 98100  0     1  0  0  0  0  0999 V2000
    1.4030   10.0424    0.0000 S   0  0  0  0  0  0  0  0  0  0  0  0
    8.4012    4.8918    0.0000 O   0  0  0  0  0  0  0  0  0  0  0  0
    8.4012   16.0849    0.0000 O   0  0  0  0  0  0  0  0  0  0  0  0
    8.9936    3.2642    0.0000 O   0  0  0  0  0  0  0  0  0  0  0  0
    8.9936   14.4573    0.0000 O   0  0  0  0  0  0  0  0  0  0  0  0
    5.5821    3.8658    0.0000 O   0  0  0  0  0  0  0  0  0  0  0  0
    5.5821   15.0588    0.0000 O   0  0  0  0  0  0  0  0  0  0  0  0
    2.2690   10.5424    0.0000 O   0  0  0  0  0  0  0  0  0  0  0  0
    0.5369    9.5424    0.0000 O   0  0  0  0  0  0  0  0  0  0  0  0
    0.9030   10.9085    0.0000 O   0  0  0  0  0  0  0  0  0  0  0  0
    1.9030    9.1764    0.0000 O   0  0  0  0  0  0  0  0  0  0  0  0
   16.4808    9.7548    0.0000 O   0  0  0  0  0  0  0  0  0  0  0  0
   10.9131    7.4889    0.0000 N   0  0  0  0  0  0  0  0  0  0  0  0
   10.9131   18.6819    0.0000 N   0  0  0  0  0  0  0  0  0  0  0  0
   11.3909    5.5403    0.0000 C   0  0  2  0  0  0  0  0  0  0  0  0
   11.3909   16.7334    0.0000 C   0  0  2  0  0  0  0  0  0  0  0  0
   11.6497    6.5062    0.0000 C   0  0  1  0  0  0  0  0  0  0  0  0
   11.6497   17.6993    0.0000 C   0  0  1  0  0  0  0  0  0  0  0  0
   12.7899    5.0315    0.0000 C   0  0  0  0  0  0  0  0  0  0  0  0
   12.7899   16.2245    0.0000 C   0  0  0  0  0  0  0  0  0  0  0  0
   13.0487    5.9974    0.0000 C   0  0  0  0  0  0  0  0  0  0  0  0
   13.0487   17.1905    0.0000 C   0  0  0  0  0  0  0  0  0  0  0  0
   10.1699    4.6747    0.0000 C   0  0  0  0  0  0  0  0  0  0  0  0
   10.1699   15.8677    0.0000 C   0  0  0  0  0  0  0  0  0  0  0  0
    9.6165    6.1951    0.0000 C   0  0  0  0  0  0  0  0  0  0  0  0
    9.6165   17.3881    0.0000 C   0  0  0  0  0  0  0  0  0  0  0  0
    9.3408    5.2338    0.0000 C   0  0  0  0  0  0  0  0  0  0  0  0
    9.3408   16.4269    0.0000 C   0  0  0  0  0  0  0  0  0  0  0  0
   10.4131    8.3549    0.0000 C   0  0  0  0  0  0  0  0  0  0  0  0
   10.4131   19.5479    0.0000 C   0  0  0  0  0  0  0  0  0  0  0  0
    8.2275    3.9070    0.0000 C   0  0  0  0  0  0  0  0  0  0  0  0
    8.2275   15.1001    0.0000 C   0  0  0  0  0  0  0  0  0  0  0  0
    7.2878    3.5650    0.0000 C   0  0  3  0  0  0  0  0  0  0  0  0
    7.2878   14.7580    0.0000 C   0  0  3  0  0  0  0  0  0  0  0  0
    6.5218    4.2078    0.0000 C   0  0  0  0  0  0  0  0  0  0  0  0
    6.5218   15.4008    0.0000 C   0  0  0  0  0  0  0  0  0  0  0  0
    7.1142    2.5802    0.0000 C   0  0  0  0  0  0  0  0  0  0  0  0
    7.1142   13.7732    0.0000 C   0  0  0  0  0  0  0  0  0  0  0  0
    7.8802    1.9374    0.0000 C   0  0  0  0  0  0  0  0  0  0  0  0
    7.8802   13.1304    0.0000 C   0  0  0  0  0  0  0  0  0  0  0  0
    6.1745    2.2382    0.0000 C   0  0  0  0  0  0  0  0  0  0  0  0
    6.1745   13.4312    0.0000 C   0  0  0  0  0  0  0  0  0  0  0  0
    7.7066    0.9526    0.0000 C   0  0  0  0  0  0  0  0  0  0  0  0
    7.7066   12.1456    0.0000 C   0  0  0  0  0  0  0  0  0  0  0  0
    6.0008    1.2534    0.0000 C   0  0  0  0  0  0  0  0  0  0  0  0
    6.0008   12.4464    0.0000 C   0  0  0  0  0  0  0  0  0  0  0  0
    6.7669    0.6106    0.0000 C   0  0  0  0  0  0  0  0  0  0  0  0
    6.7669   11.8036    0.0000 C   0  0  0  0  0  0  0  0  0  0  0  0
   11.1709    4.7193    0.0000 H   0  0  0  0  0  0  0  0  0  0  0  0
   11.1709   15.9123    0.0000 H   0  0  0  0  0  0  0  0  0  0  0  0
   11.8697    7.3273    0.0000 H   0  0  0  0  0  0  0  0  0  0  0  0
   11.8697   18.5203    0.0000 H   0  0  0  0  0  0  0  0  0  0  0  0
   12.5949    4.4429    0.0000 H   0  0  0  0  0  0  0  0  0  0  0  0
   13.3838    4.8537    0.0000 H   0  0  0  0  0  0  0  0  0  0  0  0
   12.5949   15.6360    0.0000 H   0  0  0  0  0  0  0  0  0  0  0  0
   13.3838   16.0468    0.0000 H   0  0  0  0  0  0  0  0  0  0  0  0
   13.6426    5.8196    0.0000 H   0  0  0  0  0  0  0  0  0  0  0  0
   13.2436    6.5860    0.0000 H   0  0  0  0  0  0  0  0  0  0  0  0
   13.6426   17.0127    0.0000 H   0  0  0  0  0  0  0  0  0  0  0  0
   13.2436   17.7790    0.0000 H   0  0  0  0  0  0  0  0  0  0  0  0
    9.7640    4.2059    0.0000 H   0  0  0  0  0  0  0  0  0  0  0  0
   10.5865    4.2155    0.0000 H   0  0  0  0  0  0  0  0  0  0  0  0
    9.7640   15.3990    0.0000 H   0  0  0  0  0  0  0  0  0  0  0  0
   10.5865   15.4086    0.0000 H   0  0  0  0  0  0  0  0  0  0  0  0
    9.6114    6.8151    0.0000 H   0  0  0  0  0  0  0  0  0  0  0  0
    9.0022    6.2789    0.0000 H   0  0  0  0  0  0  0  0  0  0  0  0
    9.6114   18.0081    0.0000 H   0  0  0  0  0  0  0  0  0  0  0  0
    9.0022   17.4719    0.0000 H   0  0  0  0  0  0  0  0  0  0  0  0
    8.8874    5.6567    0.0000 H   0  0  0  0  0  0  0  0  0  0  0  0
    8.8874   16.8497    0.0000 H   0  0  0  0  0  0  0  0  0  0  0  0
   10.9501    8.6649    0.0000 H   0  0  0  0  0  0  0  0  0  0  0  0
   10.1031    8.8918    0.0000 H   0  0  0  0  0  0  0  0  0  0  0  0
    9.8762    8.0449    0.0000 H   0  0  0  0  0  0  0  0  0  0  0  0
   10.9501   19.8579    0.0000 H   0  0  0  0  0  0  0  0  0  0  0  0
   10.1031   20.0849    0.0000 H   0  0  0  0  0  0  0  0  0  0  0  0
    9.8762   19.2379    0.0000 H   0  0  0  0  0  0  0  0  0  0  0  0
    6.7052    3.3530    0.0000 H   0  0  0  0  0  0  0  0  0  0  0  0
    7.3955   15.3686    0.0000 H   0  0  0  0  0  0  0  0  0  0  0  0
    6.9967    4.6063    0.0000 H   0  0  0  0  0  0  0  0  0  0  0  0
    6.2118    4.7447    0.0000 H   0  0  0  0  0  0  0  0  0  0  0  0
    6.9967   15.7994    0.0000 H   0  0  0  0  0  0  0  0  0  0  0  0
    6.2118   15.9378    0.0000 H   0  0  0  0  0  0  0  0  0  0  0  0
    8.4628    2.1495    0.0000 H   0  0  0  0  0  0  0  0  0  0  0  0
    8.4628   13.3425    0.0000 H   0  0  0  0  0  0  0  0  0  0  0  0
    5.6995    2.6367    0.0000 H   0  0  0  0  0  0  0  0  0  0  0  0
    5.6995   13.8297    0.0000 H   0  0  0  0  0  0  0  0  0  0  0  0
    5.1071    4.2643    0.0000 H   0  0  0  0  0  0  0  0  0  0  0  0
    5.1071   15.4573    0.0000 H   0  0  0  0  0  0  0  0  0  0  0  0
    8.1815    0.5541    0.0000 H   0  0  0  0  0  0  0  0  0  0  0  0
    8.1815   11.7471    0.0000 H   0  0  0  0  0  0  0  0  0  0  0  0
    5.4182    1.0413    0.0000 H   0  0  0  0  0  0  0  0  0  0  0  0
    5.4182   12.2344    0.0000 H   0  0  0  0  0  0  0  0  0  0  0  0
    6.6592    0.0000    0.0000 H   0  0  0  0  0  0  0  0  0  0  0  0
    6.6592   11.1930    0.0000 H   0  0  0  0  0  0  0  0  0  0  0  0
    2.8059   10.2324    0.0000 H   0  0  0  0  0  0  0  0  0  0  0  0
    0.0000    9.8524    0.0000 H   0  0  0  0  0  0  0  0  0  0  0  0
   17.0177   10.0648    0.0000 H   0  0  0  0  0  0  0  0  0  0  0  0
   15.9439   10.0648    0.0000 H   0  0  0  0  0  0  0  0  0  0  0  0
  1  8  1  0  0  0  0
  1  9  1  0  0  0  0
  1 10  2  0  0  0  0
  1 11  2  0  0  0  0
  2 27  1  0  0  0  0
  2 31  1  0  0  0  0
  3 28  1  0  0  0  0
  3 32  1  0  0  0  0
  4 31  2  0  0  0  0
  5 32  2  0  0  0  0
  6 35  1  0  0  0  0
  6 87  1  0  0  0  0
  7 36  1  0  0  0  0
  7 88  1  0  0  0  0
  8 95  1  0  0  0  0
  9 96  1  0  0  0  0
 12 97  1  0  0  0  0
 12 98  1  0  0  0  0
 13 15  1  0  0  0  0
 13 17  1  0  0  0  0
 13 29  1  0  0  0  0
 14 16  1  0  0  0  0
 14 18  1  0  0  0  0
 14 30  1  0  0  0  0
 15 19  1  0  0  0  0
 15 23  1  0  0  0  0
 15 49  1  1  0  0  0
 16 20  1  0  0  0  0
 16 24  1  0  0  0  0
 16 50  1  1  0  0  0
 17 21  1  0  0  0  0
 17 25  1  0  0  0  0
 17 51  1  6  0  0  0
 18 22  1  0  0  0  0
 18 26  1  0  0  0  0
 18 52  1  6  0  0  0
 19 21  1  0  0  0  0
 19 53  1  0  0  0  0
 19 54  1  0  0  0  0
 20 22  1  0  0  0  0
 20 55  1  0  0  0  0
 20 56  1  0  0  0  0
 21 57  1  0  0  0  0
 21 58  1  0  0  0  0
 22 59  1  0  0  0  0
 22 60  1  0  0  0  0
 23 27  1  0  0  0  0
 23 61  1  0  0  0  0
 23 62  1  0  0  0  0
 24 28  1  0  0  0  0
 24 63  1  0  0  0  0
 24 64  1  0  0  0  0
 25 27  1  0  0  0  0
 25 65  1  0  0  0  0
 25 66  1  0  0  0  0
 26 28  1  0  0  0  0
 26 67  1  0  0  0  0
 26 68  1  0  0  0  0
 27 69  1  0  0  0  0
 28 70  1  0  0  0  0
 29 71  1  0  0  0  0
 29 72  1  0  0  0  0
 29 73  1  0  0  0  0
 30 74  1  0  0  0  0
 30 75  1  0  0  0  0
 30 76  1  0  0  0  0
 31 33  1  0  0  0  0
 32 34  1  0  0  0  0
 33 35  1  0  0  0  0
 33 37  1  0  0  0  0
 33 77  1  0  0  0  0
 34 36  1  0  0  0  0
 34 38  1  0  0  0  0
 34 78  1  0  0  0  0
 35 79  1  0  0  0  0
 35 80  1  0  0  0  0
 36 81  1  0  0  0  0
 36 82  1  0  0  0  0
 37 39  2  0  0  0  0
 37 41  1  0  0  0  0
 38 40  2  0  0  0  0
 38 42  1  0  0  0  0
 39 43  1  0  0  0  0
 39 83  1  0  0  0  0
 40 44  1  0  0  0  0
 40 84  1  0  0  0  0
 41 45  2  0  0  0  0
 41 85  1  0  0  0  0
 42 46  2  0  0  0  0
 42 86  1  0  0  0  0
 43 47  2  0  0  0  0
 43 89  1  0  0  0  0
 44 48  2  0  0  0  0
 44 90  1  0  0  0  0
 45 47  1  0  0  0  0
 45 91  1  0  0  0  0
 46 48  1  0  0  0  0
 46 92  1  0  0  0  0
 47 93  1  0  0  0  0
 48 94  1  0  0  0  0
M  END
> <PUBCHEM_COMPOUND_CID>
656678

> <PUBCHEM_COMPOUND_CANONICALIZED>
1

> <PUBCHEM_CACTVS_COMPLEXITY>
434

> <PUBCHEM_CACTVS_HBOND_ACCEPTOR>
13

> <PUBCHEM_CACTVS_HBOND_DONOR>
5

> <PUBCHEM_CACTVS_ROTATABLE_BOND>
10

> <PUBCHEM_CACTVS_SUBSKEYS>
AAADcfB/PABAAAAAAAAAAAAAAAAAAWLAAAA8eIEABgwAAAABQAAAHgAACAAADTzhmAYyCIMABoCIAiDSCDACAAAgAAAIiAEIAIgIMDaAlRCGYAAn4AGIiAeYyOCOgAAAAAAAAAAAAAAAAAAAAAAAAAAAAA==

> <PUBCHEM_IUPAC_OPENEYE_NAME>
[(1R,5S)-8-methyl-8-azabicyclo[3.2.1]octan-3-yl] 3-hydroxy-2-phenyl-propanoate;sulfuric acid;hydrate

> <PUBCHEM_IUPAC_CAS_NAME>
3-hydroxy-2-phenylpropanoic acid [(1R,5S)-8-methyl-8-azabicyclo[3.2.1]octan-3-yl] ester;sulfuric acid;hydrate

> <PUBCHEM_IUPAC_NAME_MARKUP>
[(1<I>R</I>,5<I>S</I>)-8-methyl-8-azabicyclo[3.2.1]octan-3-yl] 3-hydroxy-2-phenylpropanoate;sulfuric acid;hydrate

> <PUBCHEM_IUPAC_NAME>
[(1R,5S)-8-methyl-8-azabicyclo[3.2.1]octan-3-yl] 3-hydroxy-2-phenylpropanoate;sulfuric acid;hydrate

> <PUBCHEM_IUPAC_SYSTEMATIC_NAME>
[(1R,5S)-8-methyl-8-azabicyclo[3.2.1]octan-3-yl] 3-oxidanyl-2-phenyl-propanoate;sulfuric acid;hydrate

> <PUBCHEM_IUPAC_TRADITIONAL_NAME>
3-hydroxy-2-phenyl-propionic acid [(1R,5S)-8-methyl-8-azabicyclo[3.2.1]octan-3-yl] ester;sulfuric acid;hydrate

> <PUBCHEM_IUPAC_INCHI>
InChI=1S/2C17H23NO3.H2O4S.H2O/c2*1-18-13-7-8-14(18)10-15(9-13)21-17(20)16(11-19)12-5-3-2-4-6-12;1-5(2,3)4;/h2*2-6,13-16,19H,7-11H2,1H3;(H2,1,2,3,4);1H2/t2*13-,14+,15?,16?;;

> <PUBCHEM_IUPAC_INCHIKEY>
JPKKQJKQTPNWTR-BRYCGAMXSA-N

> <PUBCHEM_EXACT_MASS>
694.31353159

> <PUBCHEM_MOLECULAR_FORMULA>
C34H50N2O11S

> <PUBCHEM_MOLECULAR_WEIGHT>
694.8

> <PUBCHEM_OPENEYE_CAN_SMILES>
CN1C2CCC1CC(C2)OC(=O)C(CO)C3=CC=CC=C3.CN1C2CCC1CC(C2)OC(=O)C(CO)C3=CC=CC=C3.O.OS(=O)(=O)O

> <PUBCHEM_OPENEYE_ISO_SMILES>
CN1[C@@H]2CC[C@H]1CC(C2)OC(=O)C(CO)C3=CC=CC=C3.CN1[C@@H]2CC[C@H]1CC(C2)OC(=O)C(CO)C3=CC=CC=C3.O.OS(=O)(=O)O

> <PUBCHEM_CACTVS_TPSA>
184

> <PUBCHEM_MONOISOTOPIC_WEIGHT>
694.31353159

> <PUBCHEM_TOTAL_CHARGE>
0

> <PUBCHEM_HEAVY_ATOM_COUNT>
48

> <PUBCHEM_ATOM_DEF_STEREO_COUNT>
4

> <PUBCHEM_ATOM_UDEF_STEREO_COUNT>
2

> <PUBCHEM_BOND_DEF_STEREO_COUNT>
0

> <PUBCHEM_BOND_UDEF_STEREO_COUNT>
0

> <PUBCHEM_ISOTOPIC_ATOM_COUNT>
0

> <PUBCHEM_COMPONENT_COUNT>
4

> <PUBCHEM_CACTVS_TAUTO_COUNT>
-1

> <PUBCHEM_COORDINATE_TYPE>
1
5
255

> <PUBCHEM_BONDANNOTATIONS>
15  49  5
16  50  5
17  51  6
18  52  6
33  35  3
34  36  3
37  39  8
37  41  8
38  40  8
38  42  8
39  43  8
40  44  8
41  45  8
42  46  8
43  47  8
44  48  8
45  47  8
46  48  8

$$$$
